* +++++++++++++++++++++++++++++++++++++++++++++++++++++++++ *
* CDL Netlist:                                              *
*                                                           *
* Cell Name  : WallaceProjectMAC                            *
* Netlisted  : Sat Dec 13 20:20:57 2025                     *
* PVS Version: 23.11-s036 Wed Jan 17 18:11:41 PST 2024      *
* +++++++++++++++++++++++++++++++++++++++++++++++++++++++++ *
*.LDD
*.DEVTMPLT 0 MN(g45n1svt) _nmos1v ndiff_conn(D) poly_conn(G) ndiff_conn(S) psubstrate(B)
*.DEVTMPLT 1 MP(g45p1svt) _pmos1v pdiff_conn(D) poly_conn(G) pdiff_conn(S) nwell_conn(B)

* +++++++++++++++++++++++++++++++++++++++++++++++++++++++++ *
* Sub cell: nmos1v_CDNS_765675251909                        *
* +++++++++++++++++++++++++++++++++++++++++++++++++++++++++ *
.subckt nmos1v_CDNS_765675251909 1 2 3
** N=3 EP=3 FDC=1
M0 3 2 1 1 g45n1svt L=4.5e-08 W=1.2e-07 AD=1.92e-14 AS=1.68e-14 PD=5.6e-07 PS=5.2e-07 fw=1.2e-07 sa=1.4e-07 sb=3.45e-07 sca=3.69959 scb=0.00013007 scc=4.39142e-09 $X=0 $Y=0 $dt=0
.ends nmos1v_CDNS_765675251909

* +++++++++++++++++++++++++++++++++++++++++++++++++++++++++ *
* Sub cell: nmos1v_CDNS_7656752519015                       *
* +++++++++++++++++++++++++++++++++++++++++++++++++++++++++ *
.subckt nmos1v_CDNS_7656752519015 1 2 3 4
** N=4 EP=4 FDC=1
M0 2 1 3 4 g45n1svt L=4.5e-08 W=1.2e-07 AD=1.92e-14 AS=7.2e-15 PD=5.6e-07 PS=3.6e-07 fw=1.2e-07 sa=4.5e-07 sb=3.45e-07 sca=3.69959 scb=0.00013007 scc=4.39142e-09 $X=0 $Y=0 $dt=0
.ends nmos1v_CDNS_7656752519015

* +++++++++++++++++++++++++++++++++++++++++++++++++++++++++ *
* Sub cell: nmos1v_CDNS_7656752519016                       *
* +++++++++++++++++++++++++++++++++++++++++++++++++++++++++ *
.subckt nmos1v_CDNS_7656752519016 1 2 3
** N=3 EP=3 FDC=1
M0 3 2 1 1 g45n1svt L=4.5e-08 W=1.2e-07 AD=7.2e-15 AS=1.92e-14 PD=3.6e-07 PS=5.6e-07 fw=1.2e-07 sa=3.45e-07 sb=4.5e-07 sca=3.69959 scb=0.00013007 scc=4.39142e-09 $X=0 $Y=0 $dt=0
.ends nmos1v_CDNS_7656752519016

* +++++++++++++++++++++++++++++++++++++++++++++++++++++++++ *
* Sub cell: HAdder                                          *
* +++++++++++++++++++++++++++++++++++++++++++++++++++++++++ *
.subckt HAdder sum gnd carry a b vdd 7 8 10 11
*.DEVICECLIMB
** N=12 EP=10 FDC=8
X37 gnd 7 carry nmos1v_CDNS_765675251909 $T=1570 -6890 1 90 $X=1370 $Y=-7310
X44 a sum 12 gnd nmos1v_CDNS_7656752519015 $T=1570 -4930 1 90 $X=1370 $Y=-5130
X45 gnd b 12 nmos1v_CDNS_7656752519016 $T=1570 -5140 1 90 $X=1370 $Y=-5500
M0 gnd 8 carry gnd g45n1svt L=4.5e-08 W=1.2e-07 AD=1.68e-14 AS=1.92e-14 PD=5.2e-07 PS=5.6e-07 fw=1.2e-07 sa=3.45e-07 sb=1.4e-07 sca=3.69959 scb=0.00013007 scc=4.39142e-09 $X=1570 $Y=-6480 $dt=0
M1 gnd 7 9 gnd g45n1svt L=4.5e-08 W=1.2e-07 AD=1.92e-14 AS=1.68e-14 PD=5.6e-07 PS=5.2e-07 fw=1.2e-07 sa=1.4e-07 sb=6.55e-07 sca=3.69959 scb=0.00013007 scc=4.39142e-09 $X=1570 $Y=-5550 $dt=0
M2 9 8 sum gnd g45n1svt L=4.5e-08 W=1.2e-07 AD=1.68e-14 AS=1.92e-14 PD=5.2e-07 PS=5.6e-07 fw=1.2e-07 sa=6.55e-07 sb=1.4e-07 sca=3.69959 scb=0.00013007 scc=4.39142e-09 $X=1570 $Y=-4520 $dt=0
M3 gnd a 8 gnd g45n1svt L=4.5e-08 W=1.2e-07 AD=1.68e-14 AS=1.68e-14 PD=5.2e-07 PS=5.2e-07 fw=1.2e-07 sa=1.4e-07 sb=1.4e-07 sca=3.69959 scb=0.00013007 scc=4.39142e-09 $X=1570 $Y=-3590 $dt=0
M4 gnd b 7 gnd g45n1svt L=4.5e-08 W=1.2e-07 AD=1.68e-14 AS=1.68e-14 PD=5.2e-07 PS=5.2e-07 fw=1.2e-07 sa=1.4e-07 sb=1.4e-07 sca=3.69959 scb=0.00013007 scc=4.39142e-09 $X=1580 $Y=-2660 $dt=0
.ends HAdder

* +++++++++++++++++++++++++++++++++++++++++++++++++++++++++ *
* Sub cell: XOR                                             *
* +++++++++++++++++++++++++++++++++++++++++++++++++++++++++ *
.subckt XOR a gnd vdd f b 6 7
*.DEVICECLIMB
** N=7 EP=7 FDC=4
M0 6 a gnd gnd g45n1svt L=4.5e-08 W=1.2e-07 AD=1.68e-14 AS=1.68e-14 PD=5.2e-07 PS=5.2e-07 fw=1.2e-07 sa=1.4e-07 sb=1.4e-07 sca=3.69959 scb=0.00013007 scc=4.39142e-09 $X=420 $Y=800 $dt=0
M1 f b 6 gnd g45n1svt L=4.5e-08 W=1.2e-07 AD=1.68e-14 AS=1.68e-14 PD=5.2e-07 PS=5.2e-07 fw=1.2e-07 sa=1.4e-07 sb=1.4e-07 sca=3.69959 scb=0.00013007 scc=4.39142e-09 $X=1350 $Y=800 $dt=0
M2 a 7 f gnd g45n1svt L=4.5e-08 W=1.2e-07 AD=1.68e-14 AS=1.68e-14 PD=5.2e-07 PS=5.2e-07 fw=1.2e-07 sa=1.4e-07 sb=1.4e-07 sca=3.69959 scb=0.00013007 scc=4.39142e-09 $X=2280 $Y=800 $dt=0
M3 gnd b 7 gnd g45n1svt L=4.5e-08 W=1.2e-07 AD=1.68e-14 AS=1.68e-14 PD=5.2e-07 PS=5.2e-07 fw=1.2e-07 sa=1.4e-07 sb=1.4e-07 sca=3.69959 scb=0.00013007 scc=4.39142e-09 $X=3210 $Y=800 $dt=0
.ends XOR

* +++++++++++++++++++++++++++++++++++++++++++++++++++++++++ *
* Sub cell: nmos1v_CDNS_7656752519020                       *
* +++++++++++++++++++++++++++++++++++++++++++++++++++++++++ *
.subckt nmos1v_CDNS_7656752519020 1 2 3 4
** N=4 EP=4 FDC=1
M0 4 3 1 2 g45n1svt L=4.5e-08 W=1.2e-07 AD=1.68e-14 AS=1.68e-14 PD=5.2e-07 PS=5.2e-07 fw=1.2e-07 sa=1.4e-07 sb=1.4e-07 sca=3.69959 scb=0.00013007 scc=4.39142e-09 $X=0 $Y=0 $dt=0
.ends nmos1v_CDNS_7656752519020

* +++++++++++++++++++++++++++++++++++++++++++++++++++++++++ *
* Sub cell: 4bit_CLA_logic                                  *
* +++++++++++++++++++++++++++++++++++++++++++++++++++++++++ *
.subckt 4bit_CLA_logic p1 g1 c0 gnd vdd p2 g2 cout1 p3 g3
+ cout2 p4 cout3 g4 cout4 19 29
*.DEVICECLIMB
** N=39 EP=17 FDC=54
X333 gnd gnd g1 16 nmos1v_CDNS_7656752519020 $T=2980 1040 0 180 $X=2470 $Y=240
X334 gnd gnd 16 cout1 nmos1v_CDNS_7656752519020 $T=3820 1040 1 0 $X=3400 $Y=240
X335 31 gnd p1 37 nmos1v_CDNS_7656752519020 $T=5680 1040 1 0 $X=5260 $Y=240
X336 37 gnd c0 17 nmos1v_CDNS_7656752519020 $T=6610 1040 1 0 $X=6190 $Y=240
X337 gnd gnd p3 34 nmos1v_CDNS_7656752519020 $T=10330 1040 1 0 $X=9910 $Y=240
X338 34 gnd p2 32 nmos1v_CDNS_7656752519020 $T=11260 1040 1 0 $X=10840 $Y=240
X339 32 gnd g1 18 nmos1v_CDNS_7656752519020 $T=14050 1040 1 0 $X=13630 $Y=240
X340 gnd gnd p4 35 nmos1v_CDNS_7656752519020 $T=17770 1040 1 0 $X=17350 $Y=240
X341 36 gnd p2 38 nmos1v_CDNS_7656752519020 $T=19630 1040 1 0 $X=19210 $Y=240
X342 38 gnd p1 39 nmos1v_CDNS_7656752519020 $T=20560 1040 1 0 $X=20140 $Y=240
X343 39 gnd c0 19 nmos1v_CDNS_7656752519020 $T=21490 1040 1 0 $X=21070 $Y=240
X344 38 gnd g1 19 nmos1v_CDNS_7656752519020 $T=22420 1040 1 0 $X=22000 $Y=240
X345 35 gnd g3 19 nmos1v_CDNS_7656752519020 $T=24280 1040 1 0 $X=23860 $Y=240
X346 gnd gnd g4 19 nmos1v_CDNS_7656752519020 $T=25300 1040 0 180 $X=24790 $Y=240
M0 30 p1 gnd gnd g45n1svt L=4.5e-08 W=1.2e-07 AD=1.68e-14 AS=1.68e-14 PD=5.2e-07 PS=5.2e-07 fw=1.2e-07 sa=1.4e-07 sb=1.4e-07 sca=3.69959 scb=0.00013007 scc=4.39142e-09 $X=1030 $Y=800 $dt=0
M1 16 c0 30 gnd g45n1svt L=4.5e-08 W=1.2e-07 AD=1.68e-14 AS=1.68e-14 PD=5.2e-07 PS=5.2e-07 fw=1.2e-07 sa=1.4e-07 sb=1.4e-07 sca=3.69959 scb=0.00013007 scc=4.39142e-09 $X=1960 $Y=800 $dt=0
M2 31 p2 gnd gnd g45n1svt L=4.5e-08 W=1.2e-07 AD=1.68e-14 AS=1.68e-14 PD=5.2e-07 PS=5.2e-07 fw=1.2e-07 sa=1.4e-07 sb=1.4e-07 sca=3.69959 scb=0.00013007 scc=4.39142e-09 $X=4750 $Y=800 $dt=0
M3 17 g1 31 gnd g45n1svt L=4.5e-08 W=1.2e-07 AD=1.68e-14 AS=1.68e-14 PD=5.2e-07 PS=5.2e-07 fw=1.2e-07 sa=1.4e-07 sb=1.4e-07 sca=3.69959 scb=0.00013007 scc=4.39142e-09 $X=7540 $Y=800 $dt=0
M4 gnd g2 17 gnd g45n1svt L=4.5e-08 W=1.2e-07 AD=1.68e-14 AS=1.68e-14 PD=5.2e-07 PS=5.2e-07 fw=1.2e-07 sa=1.4e-07 sb=1.4e-07 sca=3.69959 scb=0.00013007 scc=4.39142e-09 $X=8470 $Y=800 $dt=0
M5 cout2 17 gnd gnd g45n1svt L=4.5e-08 W=1.2e-07 AD=1.68e-14 AS=1.68e-14 PD=5.2e-07 PS=5.2e-07 fw=1.2e-07 sa=1.4e-07 sb=1.4e-07 sca=3.69959 scb=0.00013007 scc=4.39142e-09 $X=9400 $Y=800 $dt=0
M6 33 p1 32 gnd g45n1svt L=4.5e-08 W=1.2e-07 AD=1.68e-14 AS=1.68e-14 PD=5.2e-07 PS=5.2e-07 fw=1.2e-07 sa=1.4e-07 sb=1.4e-07 sca=3.69959 scb=0.00013007 scc=4.39142e-09 $X=12190 $Y=800 $dt=0
M7 18 c0 33 gnd g45n1svt L=4.5e-08 W=1.2e-07 AD=1.68e-14 AS=1.68e-14 PD=5.2e-07 PS=5.2e-07 fw=1.2e-07 sa=1.4e-07 sb=1.4e-07 sca=3.69959 scb=0.00013007 scc=4.39142e-09 $X=13120 $Y=800 $dt=0
M8 18 g2 34 gnd g45n1svt L=4.5e-08 W=1.2e-07 AD=1.68e-14 AS=1.68e-14 PD=5.2e-07 PS=5.2e-07 fw=1.2e-07 sa=1.4e-07 sb=1.4e-07 sca=3.69959 scb=0.00013007 scc=4.39142e-09 $X=14980 $Y=800 $dt=0
M9 gnd g3 18 gnd g45n1svt L=4.5e-08 W=1.2e-07 AD=1.68e-14 AS=1.68e-14 PD=5.2e-07 PS=5.2e-07 fw=1.2e-07 sa=1.4e-07 sb=1.4e-07 sca=3.69959 scb=0.00013007 scc=4.39142e-09 $X=15910 $Y=800 $dt=0
M10 cout3 18 gnd gnd g45n1svt L=4.5e-08 W=1.2e-07 AD=1.68e-14 AS=1.68e-14 PD=5.2e-07 PS=5.2e-07 fw=1.2e-07 sa=1.4e-07 sb=1.4e-07 sca=3.69959 scb=0.00013007 scc=4.39142e-09 $X=16840 $Y=800 $dt=0
M11 36 p3 35 gnd g45n1svt L=4.5e-08 W=1.2e-07 AD=1.68e-14 AS=1.68e-14 PD=5.2e-07 PS=5.2e-07 fw=1.2e-07 sa=1.4e-07 sb=1.4e-07 sca=3.69959 scb=0.00013007 scc=4.39142e-09 $X=18700 $Y=800 $dt=0
M12 19 g2 36 gnd g45n1svt L=4.5e-08 W=1.2e-07 AD=1.68e-14 AS=1.68e-14 PD=5.2e-07 PS=5.2e-07 fw=1.2e-07 sa=1.4e-07 sb=1.4e-07 sca=3.69959 scb=0.00013007 scc=4.39142e-09 $X=23350 $Y=800 $dt=0
M13 cout4 19 gnd gnd g45n1svt L=4.5e-08 W=1.2e-07 AD=1.68e-14 AS=1.68e-14 PD=5.2e-07 PS=5.2e-07 fw=1.2e-07 sa=1.4e-07 sb=1.4e-07 sca=3.69959 scb=0.00013007 scc=4.39142e-09 $X=26140 $Y=800 $dt=0
M14 16 p1 vdd vdd g45p1svt L=4.5e-08 W=1.2e-07 AD=1.68e-14 AS=1.68e-14 PD=5.2e-07 PS=5.2e-07 fw=1.2e-07 sa=1.4e-07 sb=1.4e-07 sca=3.73438 scb=0.00013556 scc=4.76679e-09 $X=1030 $Y=8370 $dt=1
M15 20 c0 16 vdd g45p1svt L=4.5e-08 W=1.2e-07 AD=1.68e-14 AS=1.68e-14 PD=5.2e-07 PS=5.2e-07 fw=1.2e-07 sa=1.4e-07 sb=1.4e-07 sca=3.73438 scb=0.00013556 scc=4.76679e-09 $X=1960 $Y=8370 $dt=1
M16 vdd g1 20 vdd g45p1svt L=4.5e-08 W=1.2e-07 AD=1.68e-14 AS=1.68e-14 PD=5.2e-07 PS=5.2e-07 fw=1.2e-07 sa=1.4e-07 sb=1.4e-07 sca=3.73438 scb=0.00013556 scc=4.76679e-09 $X=2890 $Y=8370 $dt=1
M17 cout1 16 vdd vdd g45p1svt L=4.5e-08 W=1.2e-07 AD=1.68e-14 AS=1.68e-14 PD=5.2e-07 PS=5.2e-07 fw=1.2e-07 sa=1.4e-07 sb=1.4e-07 sca=3.73438 scb=0.00013556 scc=4.76679e-09 $X=3820 $Y=8370 $dt=1
M18 17 p2 vdd vdd g45p1svt L=4.5e-08 W=1.2e-07 AD=1.68e-14 AS=1.68e-14 PD=5.2e-07 PS=5.2e-07 fw=1.2e-07 sa=1.4e-07 sb=1.4e-07 sca=3.73438 scb=0.00013556 scc=4.76679e-09 $X=4750 $Y=8370 $dt=1
M19 22 p1 17 vdd g45p1svt L=4.5e-08 W=1.2e-07 AD=1.68e-14 AS=1.68e-14 PD=5.2e-07 PS=5.2e-07 fw=1.2e-07 sa=1.4e-07 sb=1.4e-07 sca=3.73438 scb=0.00013556 scc=4.76679e-09 $X=5680 $Y=8370 $dt=1
M20 21 c0 17 vdd g45p1svt L=4.5e-08 W=1.2e-07 AD=1.68e-14 AS=1.68e-14 PD=5.2e-07 PS=5.2e-07 fw=1.2e-07 sa=1.4e-07 sb=1.4e-07 sca=3.73438 scb=0.00013556 scc=4.76679e-09 $X=6610 $Y=8370 $dt=1
M21 22 g1 21 vdd g45p1svt L=4.5e-08 W=1.2e-07 AD=1.68e-14 AS=1.68e-14 PD=5.2e-07 PS=5.2e-07 fw=1.2e-07 sa=1.4e-07 sb=1.4e-07 sca=3.73438 scb=0.00013556 scc=4.76679e-09 $X=7540 $Y=8370 $dt=1
M22 vdd g2 22 vdd g45p1svt L=4.5e-08 W=1.2e-07 AD=1.68e-14 AS=1.68e-14 PD=5.2e-07 PS=5.2e-07 fw=1.2e-07 sa=1.4e-07 sb=1.4e-07 sca=3.73438 scb=0.00013556 scc=4.76679e-09 $X=8470 $Y=8370 $dt=1
M23 cout2 17 vdd vdd g45p1svt L=4.5e-08 W=1.2e-07 AD=1.68e-14 AS=1.68e-14 PD=5.2e-07 PS=5.2e-07 fw=1.2e-07 sa=1.4e-07 sb=1.4e-07 sca=3.73438 scb=0.00013556 scc=4.76679e-09 $X=9400 $Y=8370 $dt=1
M24 18 p3 vdd vdd g45p1svt L=4.5e-08 W=1.2e-07 AD=1.68e-14 AS=1.68e-14 PD=5.2e-07 PS=5.2e-07 fw=1.2e-07 sa=1.4e-07 sb=1.4e-07 sca=3.73438 scb=0.00013556 scc=4.76679e-09 $X=10330 $Y=8370 $dt=1
M25 23 p2 18 vdd g45p1svt L=4.5e-08 W=1.2e-07 AD=1.68e-14 AS=1.68e-14 PD=5.2e-07 PS=5.2e-07 fw=1.2e-07 sa=1.4e-07 sb=1.4e-07 sca=3.73438 scb=0.00013556 scc=4.76679e-09 $X=11260 $Y=8370 $dt=1
M26 24 p1 18 vdd g45p1svt L=4.5e-08 W=1.2e-07 AD=1.68e-14 AS=1.68e-14 PD=5.2e-07 PS=5.2e-07 fw=1.2e-07 sa=1.4e-07 sb=1.4e-07 sca=3.73438 scb=0.00013556 scc=4.76679e-09 $X=12190 $Y=8370 $dt=1
M27 25 c0 18 vdd g45p1svt L=4.5e-08 W=1.2e-07 AD=1.68e-14 AS=1.68e-14 PD=5.2e-07 PS=5.2e-07 fw=1.2e-07 sa=1.4e-07 sb=1.4e-07 sca=3.73438 scb=0.00013556 scc=4.76679e-09 $X=13120 $Y=8370 $dt=1
M28 24 g1 25 vdd g45p1svt L=4.5e-08 W=1.2e-07 AD=1.68e-14 AS=1.68e-14 PD=5.2e-07 PS=5.2e-07 fw=1.2e-07 sa=1.4e-07 sb=1.4e-07 sca=3.73438 scb=0.00013556 scc=4.76679e-09 $X=14050 $Y=8370 $dt=1
M29 23 g2 24 vdd g45p1svt L=4.5e-08 W=1.2e-07 AD=1.68e-14 AS=1.68e-14 PD=5.2e-07 PS=5.2e-07 fw=1.2e-07 sa=1.4e-07 sb=1.4e-07 sca=3.73438 scb=0.00013556 scc=4.76679e-09 $X=14980 $Y=8370 $dt=1
M30 vdd g3 23 vdd g45p1svt L=4.5e-08 W=1.2e-07 AD=1.68e-14 AS=1.68e-14 PD=5.2e-07 PS=5.2e-07 fw=1.2e-07 sa=1.4e-07 sb=1.4e-07 sca=3.73438 scb=0.00013556 scc=4.76679e-09 $X=15910 $Y=8370 $dt=1
M31 cout3 18 vdd vdd g45p1svt L=4.5e-08 W=1.2e-07 AD=1.68e-14 AS=1.68e-14 PD=5.2e-07 PS=5.2e-07 fw=1.2e-07 sa=1.4e-07 sb=1.4e-07 sca=3.73438 scb=0.00013556 scc=4.76679e-09 $X=16840 $Y=8370 $dt=1
M32 19 p4 vdd vdd g45p1svt L=4.5e-08 W=1.2e-07 AD=1.68e-14 AS=1.68e-14 PD=5.2e-07 PS=5.2e-07 fw=1.2e-07 sa=1.4e-07 sb=1.4e-07 sca=3.73438 scb=0.00013556 scc=4.76679e-09 $X=17770 $Y=8370 $dt=1
M33 29 p3 19 vdd g45p1svt L=4.5e-08 W=1.2e-07 AD=1.68e-14 AS=1.68e-14 PD=5.2e-07 PS=5.2e-07 fw=1.2e-07 sa=1.4e-07 sb=1.4e-07 sca=3.73438 scb=0.00013556 scc=4.76679e-09 $X=18700 $Y=8370 $dt=1
M34 26 p2 19 vdd g45p1svt L=4.5e-08 W=1.2e-07 AD=1.68e-14 AS=1.68e-14 PD=5.2e-07 PS=5.2e-07 fw=1.2e-07 sa=1.4e-07 sb=1.4e-07 sca=3.73438 scb=0.00013556 scc=4.76679e-09 $X=19630 $Y=8370 $dt=1
M35 27 p1 19 vdd g45p1svt L=4.5e-08 W=1.2e-07 AD=1.68e-14 AS=1.68e-14 PD=5.2e-07 PS=5.2e-07 fw=1.2e-07 sa=1.4e-07 sb=1.4e-07 sca=3.73438 scb=0.00013556 scc=4.76679e-09 $X=20560 $Y=8370 $dt=1
M36 28 c0 19 vdd g45p1svt L=4.5e-08 W=1.2e-07 AD=1.68e-14 AS=1.68e-14 PD=5.2e-07 PS=5.2e-07 fw=1.2e-07 sa=1.4e-07 sb=1.4e-07 sca=3.73438 scb=0.00013556 scc=4.76679e-09 $X=21490 $Y=8370 $dt=1
M37 27 g1 28 vdd g45p1svt L=4.5e-08 W=1.2e-07 AD=1.68e-14 AS=1.68e-14 PD=5.2e-07 PS=5.2e-07 fw=1.2e-07 sa=1.4e-07 sb=1.4e-07 sca=3.73438 scb=0.00013556 scc=4.76679e-09 $X=22420 $Y=8370 $dt=1
M38 26 g2 27 vdd g45p1svt L=4.5e-08 W=1.2e-07 AD=1.68e-14 AS=1.68e-14 PD=5.2e-07 PS=5.2e-07 fw=1.2e-07 sa=1.4e-07 sb=1.4e-07 sca=3.73438 scb=0.00013556 scc=4.76679e-09 $X=23350 $Y=8370 $dt=1
M39 29 g3 26 vdd g45p1svt L=4.5e-08 W=1.2e-07 AD=1.68e-14 AS=1.68e-14 PD=5.2e-07 PS=5.2e-07 fw=1.2e-07 sa=1.4e-07 sb=1.4e-07 sca=3.73438 scb=0.00013556 scc=4.76679e-09 $X=24280 $Y=8370 $dt=1
.ends 4bit_CLA_logic

* +++++++++++++++++++++++++++++++++++++++++++++++++++++++++ *
* Sub cell: WallaceFinalAdder                               *
* +++++++++++++++++++++++++++++++++++++++++++++++++++++++++ *
.subckt WallaceFinalAdder s<14> aout<13> aout<14> bout<14> gnd vdd s<13> bout<13> aout<12> s<12>
+ aout<11> bout<12> s<11> bout<11> s<10> aout<10> bout<10> aout<9> bout<9> s<9>
+ s<8> aout<8> bout<8> s<7> aout<7> bout<7> s<6> aout<6> bout<6> s<5>
+ aout<5> bout<5>
** N=164 EP=32 FDC=320
X108 aout<14> gnd vdd 33 bout<14> 106 64 XOR $T=530 18810 1 0 $X=530 $Y=14110
X109 42 gnd vdd s<14> 33 105 63 XOR $T=640 4700 1 0 $X=640 $Y=0
X110 aout<13> gnd vdd 34 bout<13> 108 65 XOR $T=4740 18810 1 0 $X=4740 $Y=14110
X111 43 gnd vdd s<13> 34 107 67 XOR $T=9740 4700 0 180 $X=6020 $Y=0
X112 44 gnd vdd s<12> 35 111 69 XOR $T=17180 4700 0 180 $X=13460 $Y=0
X113 aout<12> gnd vdd 35 bout<12> 110 68 XOR $T=13530 18810 1 0 $X=13530 $Y=14110
X114 45 gnd vdd s<11> 36 114 72 XOR $T=22760 4700 0 180 $X=19040 $Y=0
X115 aout<11> gnd vdd 36 bout<11> 113 71 XOR $T=19120 18810 1 0 $X=19120 $Y=14110
X116 46 gnd vdd s<10> 37 116 74 XOR $T=26810 4700 0 180 $X=23090 $Y=0
X117 aout<10> gnd vdd 37 bout<10> 127 79 XOR $T=31140 18810 0 180 $X=27420 $Y=14110
X118 aout<9> gnd vdd 38 bout<9> 129 81 XOR $T=31430 18810 1 0 $X=31430 $Y=14110
X119 47 gnd vdd s<9> 38 131 83 XOR $T=36470 4700 0 180 $X=32750 $Y=0
X120 48 gnd vdd s<8> 39 133 85 XOR $T=43890 4700 0 180 $X=40170 $Y=0
X121 aout<8> gnd vdd 39 bout<8> 132 84 XOR $T=40220 18810 1 0 $X=40220 $Y=14110
X122 49 gnd vdd s<7> 40 136 88 XOR $T=49450 4700 0 180 $X=45730 $Y=0
X123 aout<7> gnd vdd 40 bout<7> 135 87 XOR $T=45810 18810 1 0 $X=45810 $Y=14110
X124 58 gnd vdd s<6> 41 138 90 XOR $T=49650 4700 1 0 $X=49650 $Y=0
X125 aout<6> gnd vdd 41 bout<6> 141 93 XOR $T=57790 18810 0 180 $X=54070 $Y=14110
X126 s<5> gnd 58 aout<5> bout<5> vdd 92 91 163 164 HAdder $T=62720 6180 1 90 $X=53760 $Y=6980
X127 37 53 46 gnd vdd 36 52 45 35 51
+ 44 34 43 50 42 62 149 4bit_CLA_logic $T=26970 4700 1 180 $X=320 $Y=4700
X128 41 57 58 gnd vdd 40 56 49 39 55
+ 48 38 47 54 46 78 159 4bit_CLA_logic $T=53660 4700 1 180 $X=27010 $Y=4700
M0 109 aout<13> 66 gnd g45n1svt L=4.5e-08 W=1.2e-07 AD=7.2e-15 AS=1.68e-14 PD=3.6e-07 PS=5.2e-07 fw=1.2e-07 sa=1.4e-07 sb=2.45e-07 sca=6.78406 scb=0.00345708 scc=2.49632e-05 $X=5600 $Y=19150 $dt=0
M1 gnd bout<13> 109 gnd g45n1svt L=4.5e-08 W=1.2e-07 AD=1.68e-14 AS=7.2e-15 PD=5.2e-07 PS=3.6e-07 fw=1.2e-07 sa=2.45e-07 sb=1.4e-07 sca=6.78406 scb=0.00345708 scc=2.49632e-05 $X=5810 $Y=19150 $dt=0
M2 50 66 gnd gnd g45n1svt L=4.5e-08 W=1.2e-07 AD=1.68e-14 AS=1.68e-14 PD=5.2e-07 PS=5.2e-07 fw=1.2e-07 sa=1.4e-07 sb=1.4e-07 sca=6.70537 scb=0.00332581 scc=2.28218e-05 $X=8230 $Y=19140 $dt=0
M3 112 aout<12> 70 gnd g45n1svt L=4.5e-08 W=1.2e-07 AD=7.2e-15 AS=1.68e-14 PD=3.6e-07 PS=5.2e-07 fw=1.2e-07 sa=1.4e-07 sb=2.45e-07 sca=6.78406 scb=0.00345708 scc=2.49632e-05 $X=14390 $Y=19150 $dt=0
M4 gnd bout<12> 112 gnd g45n1svt L=4.5e-08 W=1.2e-07 AD=1.68e-14 AS=7.2e-15 PD=5.2e-07 PS=3.6e-07 fw=1.2e-07 sa=2.45e-07 sb=1.4e-07 sca=6.78406 scb=0.00345708 scc=2.49632e-05 $X=14600 $Y=19150 $dt=0
M5 51 70 gnd gnd g45n1svt L=4.5e-08 W=1.2e-07 AD=1.68e-14 AS=1.68e-14 PD=5.2e-07 PS=5.2e-07 fw=1.2e-07 sa=1.4e-07 sb=1.4e-07 sca=6.70537 scb=0.00332581 scc=2.28218e-05 $X=17020 $Y=19140 $dt=0
M6 115 aout<11> 73 gnd g45n1svt L=4.5e-08 W=1.2e-07 AD=7.2e-15 AS=1.68e-14 PD=3.6e-07 PS=5.2e-07 fw=1.2e-07 sa=1.4e-07 sb=2.45e-07 sca=6.78406 scb=0.00345708 scc=2.49632e-05 $X=19980 $Y=19150 $dt=0
M7 gnd bout<11> 115 gnd g45n1svt L=4.5e-08 W=1.2e-07 AD=1.68e-14 AS=7.2e-15 PD=5.2e-07 PS=3.6e-07 fw=1.2e-07 sa=2.45e-07 sb=1.4e-07 sca=6.78406 scb=0.00345708 scc=2.49632e-05 $X=20190 $Y=19150 $dt=0
M8 52 73 gnd gnd g45n1svt L=4.5e-08 W=1.2e-07 AD=1.68e-14 AS=1.68e-14 PD=5.2e-07 PS=5.2e-07 fw=1.2e-07 sa=1.4e-07 sb=1.4e-07 sca=6.70537 scb=0.00332581 scc=2.28218e-05 $X=22610 $Y=19140 $dt=0
M9 gnd 80 53 gnd g45n1svt L=4.5e-08 W=1.2e-07 AD=1.68e-14 AS=1.68e-14 PD=5.2e-07 PS=5.2e-07 fw=1.2e-07 sa=1.4e-07 sb=1.4e-07 sca=6.70537 scb=0.00332581 scc=2.28218e-05 $X=27560 $Y=19140 $dt=0
M10 128 bout<10> gnd gnd g45n1svt L=4.5e-08 W=1.2e-07 AD=7.2e-15 AS=1.68e-14 PD=3.6e-07 PS=5.2e-07 fw=1.2e-07 sa=1.4e-07 sb=2.45e-07 sca=6.78406 scb=0.00345708 scc=2.49632e-05 $X=29980 $Y=19150 $dt=0
M11 80 aout<10> 128 gnd g45n1svt L=4.5e-08 W=1.2e-07 AD=1.68e-14 AS=7.2e-15 PD=5.2e-07 PS=3.6e-07 fw=1.2e-07 sa=2.45e-07 sb=1.4e-07 sca=6.78406 scb=0.00345708 scc=2.49632e-05 $X=30190 $Y=19150 $dt=0
M12 130 aout<9> 82 gnd g45n1svt L=4.5e-08 W=1.2e-07 AD=7.2e-15 AS=1.68e-14 PD=3.6e-07 PS=5.2e-07 fw=1.2e-07 sa=1.4e-07 sb=2.45e-07 sca=6.78406 scb=0.00345708 scc=2.49632e-05 $X=32290 $Y=19150 $dt=0
M13 gnd bout<9> 130 gnd g45n1svt L=4.5e-08 W=1.2e-07 AD=1.68e-14 AS=7.2e-15 PD=5.2e-07 PS=3.6e-07 fw=1.2e-07 sa=2.45e-07 sb=1.4e-07 sca=6.78406 scb=0.00345708 scc=2.49632e-05 $X=32500 $Y=19150 $dt=0
M14 54 82 gnd gnd g45n1svt L=4.5e-08 W=1.2e-07 AD=1.68e-14 AS=1.68e-14 PD=5.2e-07 PS=5.2e-07 fw=1.2e-07 sa=1.4e-07 sb=1.4e-07 sca=6.70537 scb=0.00332581 scc=2.28218e-05 $X=34920 $Y=19140 $dt=0
M15 134 aout<8> 86 gnd g45n1svt L=4.5e-08 W=1.2e-07 AD=7.2e-15 AS=1.68e-14 PD=3.6e-07 PS=5.2e-07 fw=1.2e-07 sa=1.4e-07 sb=2.45e-07 sca=6.78406 scb=0.00345708 scc=2.49632e-05 $X=41080 $Y=19150 $dt=0
M16 gnd bout<8> 134 gnd g45n1svt L=4.5e-08 W=1.2e-07 AD=1.68e-14 AS=7.2e-15 PD=5.2e-07 PS=3.6e-07 fw=1.2e-07 sa=2.45e-07 sb=1.4e-07 sca=6.78406 scb=0.00345708 scc=2.49632e-05 $X=41290 $Y=19150 $dt=0
M17 55 86 gnd gnd g45n1svt L=4.5e-08 W=1.2e-07 AD=1.68e-14 AS=1.68e-14 PD=5.2e-07 PS=5.2e-07 fw=1.2e-07 sa=1.4e-07 sb=1.4e-07 sca=6.70537 scb=0.00332581 scc=2.28218e-05 $X=43710 $Y=19140 $dt=0
M18 137 aout<7> 89 gnd g45n1svt L=4.5e-08 W=1.2e-07 AD=7.2e-15 AS=1.68e-14 PD=3.6e-07 PS=5.2e-07 fw=1.2e-07 sa=1.4e-07 sb=2.45e-07 sca=6.78406 scb=0.00345708 scc=2.49632e-05 $X=46670 $Y=19150 $dt=0
M19 gnd bout<7> 137 gnd g45n1svt L=4.5e-08 W=1.2e-07 AD=1.68e-14 AS=7.2e-15 PD=5.2e-07 PS=3.6e-07 fw=1.2e-07 sa=2.45e-07 sb=1.4e-07 sca=6.78406 scb=0.00345708 scc=2.49632e-05 $X=46880 $Y=19150 $dt=0
M20 56 89 gnd gnd g45n1svt L=4.5e-08 W=1.2e-07 AD=1.68e-14 AS=1.68e-14 PD=5.2e-07 PS=5.2e-07 fw=1.2e-07 sa=1.4e-07 sb=1.4e-07 sca=6.70537 scb=0.00332581 scc=2.28218e-05 $X=49300 $Y=19140 $dt=0
M21 gnd 94 57 gnd g45n1svt L=4.5e-08 W=1.2e-07 AD=1.68e-14 AS=1.68e-14 PD=5.2e-07 PS=5.2e-07 fw=1.2e-07 sa=1.4e-07 sb=1.4e-07 sca=6.70537 scb=0.00332581 scc=2.28218e-05 $X=54210 $Y=19140 $dt=0
M22 142 bout<6> gnd gnd g45n1svt L=4.5e-08 W=1.2e-07 AD=7.2e-15 AS=1.68e-14 PD=3.6e-07 PS=5.2e-07 fw=1.2e-07 sa=1.4e-07 sb=2.45e-07 sca=6.78406 scb=0.00345708 scc=2.49632e-05 $X=56630 $Y=19150 $dt=0
M23 94 aout<6> 142 gnd g45n1svt L=4.5e-08 W=1.2e-07 AD=1.68e-14 AS=7.2e-15 PD=5.2e-07 PS=3.6e-07 fw=1.2e-07 sa=2.45e-07 sb=1.4e-07 sca=6.78406 scb=0.00345708 scc=2.49632e-05 $X=56840 $Y=19150 $dt=0
M24 vdd 62 42 vdd g45p1svt L=4.5e-08 W=1.2e-07 AD=1.68e-14 AS=1.68e-14 PD=5.2e-07 PS=5.2e-07 fw=1.2e-07 sa=1.4e-07 sb=1.4e-07 sca=23.1856 scb=0.0241633 scc=0.00264686 $X=740 $Y=13070 $dt=1
M25 106 aout<14> vdd vdd g45p1svt L=4.5e-08 W=1.2e-07 AD=1.68e-14 AS=1.68e-14 PD=5.2e-07 PS=5.2e-07 fw=1.2e-07 sa=1.4e-07 sb=1.4e-07 sca=103.81 scb=0.0470958 scc=0.0116656 $X=950 $Y=14910 $dt=1
M26 105 42 vdd vdd g45p1svt L=4.5e-08 W=1.2e-07 AD=1.68e-14 AS=1.68e-14 PD=5.2e-07 PS=5.2e-07 fw=1.2e-07 sa=1.4e-07 sb=1.4e-07 sca=115.144 scb=0.0588049 scc=0.0138331 $X=1060 $Y=800 $dt=1
M27 149 50 vdd vdd g45p1svt L=4.5e-08 W=1.2e-07 AD=1.68e-14 AS=1.68e-14 PD=5.2e-07 PS=5.2e-07 fw=1.2e-07 sa=1.4e-07 sb=1.4e-07 sca=4.89541 scb=0.000812888 scc=7.58777e-07 $X=1670 $Y=13070 $dt=1
M28 33 bout<14> aout<14> vdd g45p1svt L=4.5e-08 W=1.2e-07 AD=1.68e-14 AS=1.68e-14 PD=5.2e-07 PS=5.2e-07 fw=1.2e-07 sa=1.4e-07 sb=1.4e-07 sca=96.0359 scb=0.0349585 scc=0.0111863 $X=1880 $Y=14910 $dt=1
M29 s<14> 33 42 vdd g45p1svt L=4.5e-08 W=1.2e-07 AD=1.68e-14 AS=1.68e-14 PD=5.2e-07 PS=5.2e-07 fw=1.2e-07 sa=1.4e-07 sb=1.4e-07 sca=96.854 scb=0.0354545 scc=0.011187 $X=1990 $Y=800 $dt=1
M30 106 64 33 vdd g45p1svt L=4.5e-08 W=1.2e-07 AD=1.68e-14 AS=1.68e-14 PD=5.2e-07 PS=5.2e-07 fw=1.2e-07 sa=1.4e-07 sb=1.4e-07 sca=95.3993 scb=0.0347075 scc=0.0111862 $X=2810 $Y=14910 $dt=1
M31 105 63 s<14> vdd g45p1svt L=4.5e-08 W=1.2e-07 AD=1.68e-14 AS=1.68e-14 PD=5.2e-07 PS=5.2e-07 fw=1.2e-07 sa=1.4e-07 sb=1.4e-07 sca=95.693 scb=0.0347772 scc=0.0111862 $X=2920 $Y=800 $dt=1
M32 vdd bout<14> 64 vdd g45p1svt L=4.5e-08 W=1.2e-07 AD=1.68e-14 AS=1.68e-14 PD=5.2e-07 PS=5.2e-07 fw=1.2e-07 sa=1.4e-07 sb=1.4e-07 sca=95.3993 scb=0.0347075 scc=0.0111862 $X=3740 $Y=14910 $dt=1
M33 vdd 33 63 vdd g45p1svt L=4.5e-08 W=1.2e-07 AD=1.68e-14 AS=1.68e-14 PD=5.2e-07 PS=5.2e-07 fw=1.2e-07 sa=1.4e-07 sb=1.4e-07 sca=95.693 scb=0.0347772 scc=0.0111862 $X=3850 $Y=800 $dt=1
M34 108 aout<13> vdd vdd g45p1svt L=4.5e-08 W=1.2e-07 AD=1.68e-14 AS=1.68e-14 PD=5.2e-07 PS=5.2e-07 fw=1.2e-07 sa=1.4e-07 sb=1.4e-07 sca=95.3993 scb=0.0347075 scc=0.0111862 $X=5160 $Y=14910 $dt=1
M35 66 aout<13> vdd vdd g45p1svt L=4.5e-08 W=1.2e-07 AD=1.92e-14 AS=1.68e-14 PD=5.6e-07 PS=5.2e-07 fw=1.2e-07 sa=1.4e-07 sb=3.45e-07 sca=49.7794 scb=0.0562196 scc=0.00564739 $X=5600 $Y=20590 $dt=1
M36 vdd bout<13> 66 vdd g45p1svt L=4.5e-08 W=1.2e-07 AD=1.68e-14 AS=1.92e-14 PD=5.2e-07 PS=5.6e-07 fw=1.2e-07 sa=3.45e-07 sb=1.4e-07 sca=45.2499 scb=0.0484803 scc=0.00539049 $X=6010 $Y=20590 $dt=1
M37 34 bout<13> aout<13> vdd g45p1svt L=4.5e-08 W=1.2e-07 AD=1.68e-14 AS=1.68e-14 PD=5.2e-07 PS=5.2e-07 fw=1.2e-07 sa=1.4e-07 sb=1.4e-07 sca=95.3993 scb=0.0347075 scc=0.0111862 $X=6090 $Y=14910 $dt=1
M38 67 34 vdd vdd g45p1svt L=4.5e-08 W=1.2e-07 AD=1.68e-14 AS=1.68e-14 PD=5.2e-07 PS=5.2e-07 fw=1.2e-07 sa=1.4e-07 sb=1.4e-07 sca=95.6675 scb=0.0347689 scc=0.0111862 $X=6440 $Y=800 $dt=1
M39 108 65 34 vdd g45p1svt L=4.5e-08 W=1.2e-07 AD=1.68e-14 AS=1.68e-14 PD=5.2e-07 PS=5.2e-07 fw=1.2e-07 sa=1.4e-07 sb=1.4e-07 sca=95.3993 scb=0.0347075 scc=0.0111862 $X=7020 $Y=14910 $dt=1
M40 s<13> 67 107 vdd g45p1svt L=4.5e-08 W=1.2e-07 AD=1.68e-14 AS=1.68e-14 PD=5.2e-07 PS=5.2e-07 fw=1.2e-07 sa=1.4e-07 sb=1.4e-07 sca=95.6675 scb=0.0347689 scc=0.0111862 $X=7370 $Y=800 $dt=1
M41 vdd bout<13> 65 vdd g45p1svt L=4.5e-08 W=1.2e-07 AD=1.68e-14 AS=1.68e-14 PD=5.2e-07 PS=5.2e-07 fw=1.2e-07 sa=1.4e-07 sb=1.4e-07 sca=95.3993 scb=0.0347075 scc=0.0111862 $X=7950 $Y=14910 $dt=1
M42 50 66 vdd vdd g45p1svt L=4.5e-08 W=2.4e-07 AD=3.36e-14 AS=3.36e-14 PD=7.6e-07 PS=7.6e-07 fw=2.4e-07 sa=1.4e-07 sb=1.4e-07 sca=93.2539 scb=0.0709721 scc=0.0112581 $X=8230 $Y=20400 $dt=1
M43 43 34 s<13> vdd g45p1svt L=4.5e-08 W=1.2e-07 AD=1.68e-14 AS=1.68e-14 PD=5.2e-07 PS=5.2e-07 fw=1.2e-07 sa=1.4e-07 sb=1.4e-07 sca=95.6675 scb=0.0347689 scc=0.0111862 $X=8300 $Y=800 $dt=1
M44 vdd 43 107 vdd g45p1svt L=4.5e-08 W=1.2e-07 AD=1.68e-14 AS=1.68e-14 PD=5.2e-07 PS=5.2e-07 fw=1.2e-07 sa=1.4e-07 sb=1.4e-07 sca=95.693 scb=0.0347772 scc=0.0111862 $X=9230 $Y=800 $dt=1
M45 69 35 vdd vdd g45p1svt L=4.5e-08 W=1.2e-07 AD=1.68e-14 AS=1.68e-14 PD=5.2e-07 PS=5.2e-07 fw=1.2e-07 sa=1.4e-07 sb=1.4e-07 sca=95.6675 scb=0.0347689 scc=0.0111862 $X=13880 $Y=800 $dt=1
M46 110 aout<12> vdd vdd g45p1svt L=4.5e-08 W=1.2e-07 AD=1.68e-14 AS=1.68e-14 PD=5.2e-07 PS=5.2e-07 fw=1.2e-07 sa=1.4e-07 sb=1.4e-07 sca=95.3993 scb=0.0347075 scc=0.0111862 $X=13950 $Y=14910 $dt=1
M47 70 aout<12> vdd vdd g45p1svt L=4.5e-08 W=1.2e-07 AD=1.92e-14 AS=1.68e-14 PD=5.6e-07 PS=5.2e-07 fw=1.2e-07 sa=1.4e-07 sb=3.45e-07 sca=49.7794 scb=0.0562196 scc=0.00564739 $X=14390 $Y=20590 $dt=1
M48 vdd bout<12> 70 vdd g45p1svt L=4.5e-08 W=1.2e-07 AD=1.68e-14 AS=1.92e-14 PD=5.2e-07 PS=5.6e-07 fw=1.2e-07 sa=3.45e-07 sb=1.4e-07 sca=45.2499 scb=0.0484803 scc=0.00539049 $X=14800 $Y=20590 $dt=1
M49 s<12> 69 111 vdd g45p1svt L=4.5e-08 W=1.2e-07 AD=1.68e-14 AS=1.68e-14 PD=5.2e-07 PS=5.2e-07 fw=1.2e-07 sa=1.4e-07 sb=1.4e-07 sca=95.6675 scb=0.0347689 scc=0.0111862 $X=14810 $Y=800 $dt=1
M50 35 bout<12> aout<12> vdd g45p1svt L=4.5e-08 W=1.2e-07 AD=1.68e-14 AS=1.68e-14 PD=5.2e-07 PS=5.2e-07 fw=1.2e-07 sa=1.4e-07 sb=1.4e-07 sca=95.3993 scb=0.0347075 scc=0.0111862 $X=14880 $Y=14910 $dt=1
M51 44 35 s<12> vdd g45p1svt L=4.5e-08 W=1.2e-07 AD=1.68e-14 AS=1.68e-14 PD=5.2e-07 PS=5.2e-07 fw=1.2e-07 sa=1.4e-07 sb=1.4e-07 sca=95.6675 scb=0.0347689 scc=0.0111862 $X=15740 $Y=800 $dt=1
M52 110 68 35 vdd g45p1svt L=4.5e-08 W=1.2e-07 AD=1.68e-14 AS=1.68e-14 PD=5.2e-07 PS=5.2e-07 fw=1.2e-07 sa=1.4e-07 sb=1.4e-07 sca=95.3993 scb=0.0347075 scc=0.0111862 $X=15810 $Y=14910 $dt=1
M53 vdd 44 111 vdd g45p1svt L=4.5e-08 W=1.2e-07 AD=1.68e-14 AS=1.68e-14 PD=5.2e-07 PS=5.2e-07 fw=1.2e-07 sa=1.4e-07 sb=1.4e-07 sca=95.6675 scb=0.0347689 scc=0.0111862 $X=16670 $Y=800 $dt=1
M54 vdd bout<12> 68 vdd g45p1svt L=4.5e-08 W=1.2e-07 AD=1.68e-14 AS=1.68e-14 PD=5.2e-07 PS=5.2e-07 fw=1.2e-07 sa=1.4e-07 sb=1.4e-07 sca=95.3993 scb=0.0347075 scc=0.0111862 $X=16740 $Y=14910 $dt=1
M55 51 70 vdd vdd g45p1svt L=4.5e-08 W=2.4e-07 AD=3.36e-14 AS=3.36e-14 PD=7.6e-07 PS=7.6e-07 fw=2.4e-07 sa=1.4e-07 sb=1.4e-07 sca=93.2539 scb=0.0709721 scc=0.0112581 $X=17020 $Y=20400 $dt=1
M56 72 36 vdd vdd g45p1svt L=4.5e-08 W=1.2e-07 AD=1.68e-14 AS=1.68e-14 PD=5.2e-07 PS=5.2e-07 fw=1.2e-07 sa=1.4e-07 sb=1.4e-07 sca=95.6675 scb=0.0347689 scc=0.0111862 $X=19460 $Y=800 $dt=1
M57 113 aout<11> vdd vdd g45p1svt L=4.5e-08 W=1.2e-07 AD=1.68e-14 AS=1.68e-14 PD=5.2e-07 PS=5.2e-07 fw=1.2e-07 sa=1.4e-07 sb=1.4e-07 sca=95.3993 scb=0.0347075 scc=0.0111862 $X=19540 $Y=14910 $dt=1
M58 73 aout<11> vdd vdd g45p1svt L=4.5e-08 W=1.2e-07 AD=1.92e-14 AS=1.68e-14 PD=5.6e-07 PS=5.2e-07 fw=1.2e-07 sa=1.4e-07 sb=3.45e-07 sca=49.7794 scb=0.0562196 scc=0.00564739 $X=19980 $Y=20590 $dt=1
M59 s<11> 72 114 vdd g45p1svt L=4.5e-08 W=1.2e-07 AD=1.68e-14 AS=1.68e-14 PD=5.2e-07 PS=5.2e-07 fw=1.2e-07 sa=1.4e-07 sb=1.4e-07 sca=95.6675 scb=0.0347689 scc=0.0111862 $X=20390 $Y=800 $dt=1
M60 vdd bout<11> 73 vdd g45p1svt L=4.5e-08 W=1.2e-07 AD=1.68e-14 AS=1.92e-14 PD=5.2e-07 PS=5.6e-07 fw=1.2e-07 sa=3.45e-07 sb=1.4e-07 sca=45.2499 scb=0.0484803 scc=0.00539049 $X=20390 $Y=20590 $dt=1
M61 36 bout<11> aout<11> vdd g45p1svt L=4.5e-08 W=1.2e-07 AD=1.68e-14 AS=1.68e-14 PD=5.2e-07 PS=5.2e-07 fw=1.2e-07 sa=1.4e-07 sb=1.4e-07 sca=95.3993 scb=0.0347075 scc=0.0111862 $X=20470 $Y=14910 $dt=1
M62 45 36 s<11> vdd g45p1svt L=4.5e-08 W=1.2e-07 AD=1.68e-14 AS=1.68e-14 PD=5.2e-07 PS=5.2e-07 fw=1.2e-07 sa=1.4e-07 sb=1.4e-07 sca=95.6675 scb=0.0347689 scc=0.0111862 $X=21320 $Y=800 $dt=1
M63 113 71 36 vdd g45p1svt L=4.5e-08 W=1.2e-07 AD=1.68e-14 AS=1.68e-14 PD=5.2e-07 PS=5.2e-07 fw=1.2e-07 sa=1.4e-07 sb=1.4e-07 sca=95.3993 scb=0.0347075 scc=0.0111862 $X=21400 $Y=14910 $dt=1
M64 vdd 45 114 vdd g45p1svt L=4.5e-08 W=1.2e-07 AD=1.68e-14 AS=1.68e-14 PD=5.2e-07 PS=5.2e-07 fw=1.2e-07 sa=1.4e-07 sb=1.4e-07 sca=95.6675 scb=0.0347689 scc=0.0111862 $X=22250 $Y=800 $dt=1
M65 vdd bout<11> 71 vdd g45p1svt L=4.5e-08 W=1.2e-07 AD=1.68e-14 AS=1.68e-14 PD=5.2e-07 PS=5.2e-07 fw=1.2e-07 sa=1.4e-07 sb=1.4e-07 sca=95.3993 scb=0.0347075 scc=0.0111862 $X=22330 $Y=14910 $dt=1
M66 52 73 vdd vdd g45p1svt L=4.5e-08 W=2.4e-07 AD=3.36e-14 AS=3.36e-14 PD=7.6e-07 PS=7.6e-07 fw=2.4e-07 sa=1.4e-07 sb=1.4e-07 sca=93.2539 scb=0.0709721 scc=0.0112581 $X=22610 $Y=20400 $dt=1
M67 74 37 vdd vdd g45p1svt L=4.5e-08 W=1.2e-07 AD=1.68e-14 AS=1.68e-14 PD=5.2e-07 PS=5.2e-07 fw=1.2e-07 sa=1.4e-07 sb=1.4e-07 sca=95.693 scb=0.0347772 scc=0.0111862 $X=23510 $Y=800 $dt=1
M68 s<10> 74 116 vdd g45p1svt L=4.5e-08 W=1.2e-07 AD=1.68e-14 AS=1.68e-14 PD=5.2e-07 PS=5.2e-07 fw=1.2e-07 sa=1.4e-07 sb=1.4e-07 sca=95.693 scb=0.0347772 scc=0.0111862 $X=24440 $Y=800 $dt=1
M69 46 37 s<10> vdd g45p1svt L=4.5e-08 W=1.2e-07 AD=1.68e-14 AS=1.68e-14 PD=5.2e-07 PS=5.2e-07 fw=1.2e-07 sa=1.4e-07 sb=1.4e-07 sca=95.693 scb=0.0347772 scc=0.0111862 $X=25370 $Y=800 $dt=1
M70 vdd 46 116 vdd g45p1svt L=4.5e-08 W=1.2e-07 AD=1.68e-14 AS=1.68e-14 PD=5.2e-07 PS=5.2e-07 fw=1.2e-07 sa=1.4e-07 sb=1.4e-07 sca=95.693 scb=0.0347772 scc=0.0111862 $X=26300 $Y=800 $dt=1