* +++++++++++++++++++++++++++++++++++++++++++++++++++++++++ *
* CDL Netlist:                                              *
*                                                           *
* Cell Name  : WallaceMultiplier                            *
* Netlisted  : Thu Dec  4 17:53:32 2025                     *
* PVS Version: 23.11-s036 Wed Jan 17 18:11:41 PST 2024      *
* +++++++++++++++++++++++++++++++++++++++++++++++++++++++++ *
*.LDD
*.DEVTMPLT 0 MN(g45n1svt) _nmos1v ndiff_conn(D) poly_conn(G) ndiff_conn(S) psubstrate(B)
*.DEVTMPLT 1 MP(g45p1svt) _pmos1v pdiff_conn(D) poly_conn(G) pdiff_conn(S) nwell_conn(B)

* +++++++++++++++++++++++++++++++++++++++++++++++++++++++++ *
* Sub cell: WallaceMultiplier                               *
* +++++++++++++++++++++++++++++++++++++++++++++++++++++++++ *
.subckt WallaceMultiplier a<0> a<1> a<2> a<3> a<4> a<5> a<6> a<7> b<0> b<1>
+ b<2> b<3> b<4> b<5> b<6> b<7> gnd p00 p01 p02
+ p03 p04 p05 p06 p07 p10 p11 p12 p13 p14
+ p15 p16 p17 p20 p21 p22 p23 p24 p25 p26
+ p27 p30 p31 p32 p33 p34 p35 p36 p37 p40
+ p41 p42 p43 p44 p45 p46 p47 p50 p51 p52
+ p53 p54 p55 p56 p57 p60 p61 p62 p63 p64
+ p65 p66 p67 p70 p71 p72 p73 p74 p75 p76
+ p77 vdd
** N=210 EP=82 FDC=384
M0 147 a<7> 83 gnd g45n1svt L=4.5e-08 W=1.2e-07 AD=7.2e-15 AS=1.68e-14 PD=3.6e-07 PS=5.2e-07 fw=1.2e-07 sa=1.4e-07 sb=2.45e-07 sca=7.11756 scb=0.00354063 scc=2.49777e-05 $X=4660 $Y=33350 $dt=0
M1 148 a<6> 84 gnd g45n1svt L=4.5e-08 W=1.2e-07 AD=7.2e-15 AS=1.68e-14 PD=3.6e-07 PS=5.2e-07 fw=1.2e-07 sa=1.4e-07 sb=2.45e-07 sca=7.11756 scb=0.00354063 scc=2.49777e-05 $X=4660 $Y=34150 $dt=0
M2 149 a<5> 85 gnd g45n1svt L=4.5e-08 W=1.2e-07 AD=7.2e-15 AS=1.68e-14 PD=3.6e-07 PS=5.2e-07 fw=1.2e-07 sa=1.4e-07 sb=2.45e-07 sca=7.11756 scb=0.00354063 scc=2.49777e-05 $X=4660 $Y=37890 $dt=0
M3 150 a<4> 86 gnd g45n1svt L=4.5e-08 W=1.2e-07 AD=7.2e-15 AS=1.68e-14 PD=3.6e-07 PS=5.2e-07 fw=1.2e-07 sa=1.4e-07 sb=2.45e-07 sca=7.11756 scb=0.00354063 scc=2.49777e-05 $X=4660 $Y=38690 $dt=0
M4 151 a<3> 87 gnd g45n1svt L=4.5e-08 W=1.2e-07 AD=7.2e-15 AS=1.68e-14 PD=3.6e-07 PS=5.2e-07 fw=1.2e-07 sa=1.4e-07 sb=2.45e-07 sca=7.11756 scb=0.00354063 scc=2.49777e-05 $X=4660 $Y=42430 $dt=0
M5 152 a<2> 88 gnd g45n1svt L=4.5e-08 W=1.2e-07 AD=7.2e-15 AS=1.68e-14 PD=3.6e-07 PS=5.2e-07 fw=1.2e-07 sa=1.4e-07 sb=2.45e-07 sca=7.11756 scb=0.00354063 scc=2.49777e-05 $X=4660 $Y=43230 $dt=0
M6 153 a<1> 89 gnd g45n1svt L=4.5e-08 W=1.2e-07 AD=7.2e-15 AS=1.68e-14 PD=3.6e-07 PS=5.2e-07 fw=1.2e-07 sa=1.4e-07 sb=2.45e-07 sca=7.11756 scb=0.00354063 scc=2.49777e-05 $X=4660 $Y=46970 $dt=0
M7 154 a<0> 90 gnd g45n1svt L=4.5e-08 W=1.2e-07 AD=7.2e-15 AS=1.68e-14 PD=3.6e-07 PS=5.2e-07 fw=1.2e-07 sa=1.4e-07 sb=2.45e-07 sca=7.11756 scb=0.00354063 scc=2.49777e-05 $X=4660 $Y=47770 $dt=0
M8 gnd b<0> 147 gnd g45n1svt L=4.5e-08 W=1.2e-07 AD=1.68e-14 AS=7.2e-15 PD=5.2e-07 PS=3.6e-07 fw=1.2e-07 sa=2.45e-07 sb=1.4e-07 sca=7.11756 scb=0.00354063 scc=2.49777e-05 $X=4870 $Y=33350 $dt=0
M9 gnd b<0> 148 gnd g45n1svt L=4.5e-08 W=1.2e-07 AD=1.68e-14 AS=7.2e-15 PD=5.2e-07 PS=3.6e-07 fw=1.2e-07 sa=2.45e-07 sb=1.4e-07 sca=7.11756 scb=0.00354063 scc=2.49777e-05 $X=4870 $Y=34150 $dt=0
M10 gnd b<0> 149 gnd g45n1svt L=4.5e-08 W=1.2e-07 AD=1.68e-14 AS=7.2e-15 PD=5.2e-07 PS=3.6e-07 fw=1.2e-07 sa=2.45e-07 sb=1.4e-07 sca=7.11756 scb=0.00354063 scc=2.49777e-05 $X=4870 $Y=37890 $dt=0
M11 gnd b<0> 150 gnd g45n1svt L=4.5e-08 W=1.2e-07 AD=1.68e-14 AS=7.2e-15 PD=5.2e-07 PS=3.6e-07 fw=1.2e-07 sa=2.45e-07 sb=1.4e-07 sca=7.11756 scb=0.00354063 scc=2.49777e-05 $X=4870 $Y=38690 $dt=0
M12 gnd b<0> 151 gnd g45n1svt L=4.5e-08 W=1.2e-07 AD=1.68e-14 AS=7.2e-15 PD=5.2e-07 PS=3.6e-07 fw=1.2e-07 sa=2.45e-07 sb=1.4e-07 sca=7.11756 scb=0.00354063 scc=2.49777e-05 $X=4870 $Y=42430 $dt=0
M13 gnd b<0> 152 gnd g45n1svt L=4.5e-08 W=1.2e-07 AD=1.68e-14 AS=7.2e-15 PD=5.2e-07 PS=3.6e-07 fw=1.2e-07 sa=2.45e-07 sb=1.4e-07 sca=7.11756 scb=0.00354063 scc=2.49777e-05 $X=4870 $Y=43230 $dt=0
M14 gnd b<0> 153 gnd g45n1svt L=4.5e-08 W=1.2e-07 AD=1.68e-14 AS=7.2e-15 PD=5.2e-07 PS=3.6e-07 fw=1.2e-07 sa=2.45e-07 sb=1.4e-07 sca=7.11756 scb=0.00354063 scc=2.49777e-05 $X=4870 $Y=46970 $dt=0
M15 gnd b<0> 154 gnd g45n1svt L=4.5e-08 W=1.2e-07 AD=1.68e-14 AS=7.2e-15 PD=5.2e-07 PS=3.6e-07 fw=1.2e-07 sa=2.45e-07 sb=1.4e-07 sca=7.11756 scb=0.00354063 scc=2.49777e-05 $X=4870 $Y=47770 $dt=0
M16 p07 83 gnd gnd g45n1svt L=4.5e-08 W=1.2e-07 AD=1.68e-14 AS=1.68e-14 PD=5.2e-07 PS=5.2e-07 fw=1.2e-07 sa=1.4e-07 sb=1.4e-07 sca=7.05259 scb=0.00341442 scc=2.28378e-05 $X=7290 $Y=33360 $dt=0
M17 p06 84 gnd gnd g45n1svt L=4.5e-08 W=1.2e-07 AD=1.68e-14 AS=1.68e-14 PD=5.2e-07 PS=5.2e-07 fw=1.2e-07 sa=1.4e-07 sb=1.4e-07 sca=7.05259 scb=0.00341442 scc=2.28378e-05 $X=7290 $Y=34140 $dt=0
M18 p05 85 gnd gnd g45n1svt L=4.5e-08 W=1.2e-07 AD=1.68e-14 AS=1.68e-14 PD=5.2e-07 PS=5.2e-07 fw=1.2e-07 sa=1.4e-07 sb=1.4e-07 sca=7.05259 scb=0.00341442 scc=2.28378e-05 $X=7290 $Y=37900 $dt=0
M19 p04 86 gnd gnd g45n1svt L=4.5e-08 W=1.2e-07 AD=1.68e-14 AS=1.68e-14 PD=5.2e-07 PS=5.2e-07 fw=1.2e-07 sa=1.4e-07 sb=1.4e-07 sca=7.05259 scb=0.00341442 scc=2.28378e-05 $X=7290 $Y=38680 $dt=0
M20 p03 87 gnd gnd g45n1svt L=4.5e-08 W=1.2e-07 AD=1.68e-14 AS=1.68e-14 PD=5.2e-07 PS=5.2e-07 fw=1.2e-07 sa=1.4e-07 sb=1.4e-07 sca=7.05259 scb=0.00341442 scc=2.28378e-05 $X=7290 $Y=42440 $dt=0
M21 p02 88 gnd gnd g45n1svt L=4.5e-08 W=1.2e-07 AD=1.68e-14 AS=1.68e-14 PD=5.2e-07 PS=5.2e-07 fw=1.2e-07 sa=1.4e-07 sb=1.4e-07 sca=7.05259 scb=0.00341442 scc=2.28378e-05 $X=7290 $Y=43220 $dt=0
M22 p01 89 gnd gnd g45n1svt L=4.5e-08 W=1.2e-07 AD=1.68e-14 AS=1.68e-14 PD=5.2e-07 PS=5.2e-07 fw=1.2e-07 sa=1.4e-07 sb=1.4e-07 sca=7.05259 scb=0.00341442 scc=2.28378e-05 $X=7290 $Y=46980 $dt=0
M23 p00 90 gnd gnd g45n1svt L=4.5e-08 W=1.2e-07 AD=1.68e-14 AS=1.68e-14 PD=5.2e-07 PS=5.2e-07 fw=1.2e-07 sa=1.4e-07 sb=1.4e-07 sca=7.05259 scb=0.00341442 scc=2.28378e-05 $X=7290 $Y=47760 $dt=0
M24 155 a<7> 91 gnd g45n1svt L=4.5e-08 W=1.2e-07 AD=7.2e-15 AS=1.68e-14 PD=3.6e-07 PS=5.2e-07 fw=1.2e-07 sa=1.4e-07 sb=2.45e-07 sca=7.11756 scb=0.00354063 scc=2.49777e-05 $X=9870 $Y=33340 $dt=0
M25 156 a<6> 92 gnd g45n1svt L=4.5e-08 W=1.2e-07 AD=7.2e-15 AS=1.68e-14 PD=3.6e-07 PS=5.2e-07 fw=1.2e-07 sa=1.4e-07 sb=2.45e-07 sca=7.11756 scb=0.00354063 scc=2.49777e-05 $X=9870 $Y=34140 $dt=0
M26 157 a<5> 93 gnd g45n1svt L=4.5e-08 W=1.2e-07 AD=7.2e-15 AS=1.68e-14 PD=3.6e-07 PS=5.2e-07 fw=1.2e-07 sa=1.4e-07 sb=2.45e-07 sca=7.11756 scb=0.00354063 scc=2.49777e-05 $X=9870 $Y=37890 $dt=0
M27 158 a<4> 94 gnd g45n1svt L=4.5e-08 W=1.2e-07 AD=7.2e-15 AS=1.68e-14 PD=3.6e-07 PS=5.2e-07 fw=1.2e-07 sa=1.4e-07 sb=2.45e-07 sca=7.11756 scb=0.00354063 scc=2.49777e-05 $X=9870 $Y=38690 $dt=0
M28 159 a<3> 95 gnd g45n1svt L=4.5e-08 W=1.2e-07 AD=7.2e-15 AS=1.68e-14 PD=3.6e-07 PS=5.2e-07 fw=1.2e-07 sa=1.4e-07 sb=2.45e-07 sca=7.11756 scb=0.00354063 scc=2.49777e-05 $X=9870 $Y=42430 $dt=0
M29 160 a<2> 96 gnd g45n1svt L=4.5e-08 W=1.2e-07 AD=7.2e-15 AS=1.68e-14 PD=3.6e-07 PS=5.2e-07 fw=1.2e-07 sa=1.4e-07 sb=2.45e-07 sca=7.11756 scb=0.00354063 scc=2.49777e-05 $X=9870 $Y=43230 $dt=0
M30 161 a<1> 97 gnd g45n1svt L=4.5e-08 W=1.2e-07 AD=7.2e-15 AS=1.68e-14 PD=3.6e-07 PS=5.2e-07 fw=1.2e-07 sa=1.4e-07 sb=2.45e-07 sca=7.11756 scb=0.00354063 scc=2.49777e-05 $X=9870 $Y=46970 $dt=0
M31 162 a<0> 98 gnd g45n1svt L=4.5e-08 W=1.2e-07 AD=7.2e-15 AS=1.68e-14 PD=3.6e-07 PS=5.2e-07 fw=1.2e-07 sa=1.4e-07 sb=2.45e-07 sca=7.11756 scb=0.00354063 scc=2.49777e-05 $X=9870 $Y=47770 $dt=0
M32 gnd b<1> 155 gnd g45n1svt L=4.5e-08 W=1.2e-07 AD=1.68e-14 AS=7.2e-15 PD=5.2e-07 PS=3.6e-07 fw=1.2e-07 sa=2.45e-07 sb=1.4e-07 sca=7.11756 scb=0.00354063 scc=2.49777e-05 $X=10080 $Y=33340 $dt=0
M33 gnd b<1> 156 gnd g45n1svt L=4.5e-08 W=1.2e-07 AD=1.68e-14 AS=7.2e-15 PD=5.2e-07 PS=3.6e-07 fw=1.2e-07 sa=2.45e-07 sb=1.4e-07 sca=7.11756 scb=0.00354063 scc=2.49777e-05 $X=10080 $Y=34140 $dt=0
M34 gnd b<1> 157 gnd g45n1svt L=4.5e-08 W=1.2e-07 AD=1.68e-14 AS=7.2e-15 PD=5.2e-07 PS=3.6e-07 fw=1.2e-07 sa=2.45e-07 sb=1.4e-07 sca=7.11756 scb=0.00354063 scc=2.49777e-05 $X=10080 $Y=37890 $dt=0
M35 gnd b<1> 158 gnd g45n1svt L=4.5e-08 W=1.2e-07 AD=1.68e-14 AS=7.2e-15 PD=5.2e-07 PS=3.6e-07 fw=1.2e-07 sa=2.45e-07 sb=1.4e-07 sca=7.11756 scb=0.00354063 scc=2.49777e-05 $X=10080 $Y=38690 $dt=0
M36 gnd b<1> 159 gnd g45n1svt L=4.5e-08 W=1.2e-07 AD=1.68e-14 AS=7.2e-15 PD=5.2e-07 PS=3.6e-07 fw=1.2e-07 sa=2.45e-07 sb=1.4e-07 sca=7.11756 scb=0.00354063 scc=2.49777e-05 $X=10080 $Y=42430 $dt=0
M37 gnd b<1> 160 gnd g45n1svt L=4.5e-08 W=1.2e-07 AD=1.68e-14 AS=7.2e-15 PD=5.2e-07 PS=3.6e-07 fw=1.2e-07 sa=2.45e-07 sb=1.4e-07 sca=7.11756 scb=0.00354063 scc=2.49777e-05 $X=10080 $Y=43230 $dt=0
M38 gnd b<1> 161 gnd g45n1svt L=4.5e-08 W=1.2e-07 AD=1.68e-14 AS=7.2e-15 PD=5.2e-07 PS=3.6e-07 fw=1.2e-07 sa=2.45e-07 sb=1.4e-07 sca=7.11756 scb=0.00354063 scc=2.49777e-05 $X=10080 $Y=46970 $dt=0
M39 gnd b<1> 162 gnd g45n1svt L=4.5e-08 W=1.2e-07 AD=1.68e-14 AS=7.2e-15 PD=5.2e-07 PS=3.6e-07 fw=1.2e-07 sa=2.45e-07 sb=1.4e-07 sca=7.11756 scb=0.00354063 scc=2.49777e-05 $X=10080 $Y=47770 $dt=0
M40 p17 91 gnd gnd g45n1svt L=4.5e-08 W=1.2e-07 AD=1.68e-14 AS=1.68e-14 PD=5.2e-07 PS=5.2e-07 fw=1.2e-07 sa=1.4e-07 sb=1.4e-07 sca=7.05259 scb=0.00341442 scc=2.28378e-05 $X=12500 $Y=33350 $dt=0
M41 p16 92 gnd gnd g45n1svt L=4.5e-08 W=1.2e-07 AD=1.68e-14 AS=1.68e-14 PD=5.2e-07 PS=5.2e-07 fw=1.2e-07 sa=1.4e-07 sb=1.4e-07 sca=7.05259 scb=0.00341442 scc=2.28378e-05 $X=12500 $Y=34130 $dt=0
M42 p15 93 gnd gnd g45n1svt L=4.5e-08 W=1.2e-07 AD=1.68e-14 AS=1.68e-14 PD=5.2e-07 PS=5.2e-07 fw=1.2e-07 sa=1.4e-07 sb=1.4e-07 sca=7.05259 scb=0.00341442 scc=2.28378e-05 $X=12500 $Y=37900 $dt=0
M43 p14 94 gnd gnd g45n1svt L=4.5e-08 W=1.2e-07 AD=1.68e-14 AS=1.68e-14 PD=5.2e-07 PS=5.2e-07 fw=1.2e-07 sa=1.4e-07 sb=1.4e-07 sca=7.05259 scb=0.00341442 scc=2.28378e-05 $X=12500 $Y=38680 $dt=0
M44 p13 95 gnd gnd g45n1svt L=4.5e-08 W=1.2e-07 AD=1.68e-14 AS=1.68e-14 PD=5.2e-07 PS=5.2e-07 fw=1.2e-07 sa=1.4e-07 sb=1.4e-07 sca=7.05259 scb=0.00341442 scc=2.28378e-05 $X=12500 $Y=42440 $dt=0
M45 p12 96 gnd gnd g45n1svt L=4.5e-08 W=1.2e-07 AD=1.68e-14 AS=1.68e-14 PD=5.2e-07 PS=5.2e-07 fw=1.2e-07 sa=1.4e-07 sb=1.4e-07 sca=7.05259 scb=0.00341442 scc=2.28378e-05 $X=12500 $Y=43220 $dt=0
M46 p11 97 gnd gnd g45n1svt L=4.5e-08 W=1.2e-07 AD=1.68e-14 AS=1.68e-14 PD=5.2e-07 PS=5.2e-07 fw=1.2e-07 sa=1.4e-07 sb=1.4e-07 sca=7.05259 scb=0.00341442 scc=2.28378e-05 $X=12500 $Y=46980 $dt=0
M47 p10 98 gnd gnd g45n1svt L=4.5e-08 W=1.2e-07 AD=1.68e-14 AS=1.68e-14 PD=5.2e-07 PS=5.2e-07 fw=1.2e-07 sa=1.4e-07 sb=1.4e-07 sca=7.05259 scb=0.00341442 scc=2.28378e-05 $X=12500 $Y=47760 $dt=0
M48 163 a<7> 99 gnd g45n1svt L=4.5e-08 W=1.2e-07 AD=7.2e-15 AS=1.68e-14 PD=3.6e-07 PS=5.2e-07 fw=1.2e-07 sa=1.4e-07 sb=2.45e-07 sca=7.11756 scb=0.00354063 scc=2.49777e-05 $X=14870 $Y=33340 $dt=0
M49 164 a<6> 100 gnd g45n1svt L=4.5e-08 W=1.2e-07 AD=7.2e-15 AS=1.68e-14 PD=3.6e-07 PS=5.2e-07 fw=1.2e-07 sa=1.4e-07 sb=2.45e-07 sca=7.11756 scb=0.00354063 scc=2.49777e-05 $X=14870 $Y=34140 $dt=0
M50 165 a<5> 101 gnd g45n1svt L=4.5e-08 W=1.2e-07 AD=7.2e-15 AS=1.68e-14 PD=3.6e-07 PS=5.2e-07 fw=1.2e-07 sa=1.4e-07 sb=2.45e-07 sca=7.11756 scb=0.00354063 scc=2.49777e-05 $X=14870 $Y=37890 $dt=0
M51 166 a<4> 102 gnd g45n1svt L=4.5e-08 W=1.2e-07 AD=7.2e-15 AS=1.68e-14 PD=3.6e-07 PS=5.2e-07 fw=1.2e-07 sa=1.4e-07 sb=2.45e-07 sca=7.11756 scb=0.00354063 scc=2.49777e-05 $X=14870 $Y=38690 $dt=0
M52 167 a<3> 103 gnd g45n1svt L=4.5e-08 W=1.2e-07 AD=7.2e-15 AS=1.68e-14 PD=3.6e-07 PS=5.2e-07 fw=1.2e-07 sa=1.4e-07 sb=2.45e-07 sca=7.11756 scb=0.00354063 scc=2.49777e-05 $X=14870 $Y=42430 $dt=0
M53 168 a<2> 104 gnd g45n1svt L=4.5e-08 W=1.2e-07 AD=7.2e-15 AS=1.68e-14 PD=3.6e-07 PS=5.2e-07 fw=1.2e-07 sa=1.4e-07 sb=2.45e-07 sca=7.11756 scb=0.00354063 scc=2.49777e-05 $X=14870 $Y=43230 $dt=0
M54 169 a<1> 105 gnd g45n1svt L=4.5e-08 W=1.2e-07 AD=7.2e-15 AS=1.68e-14 PD=3.6e-07 PS=5.2e-07 fw=1.2e-07 sa=1.4e-07 sb=2.45e-07 sca=7.11756 scb=0.00354063 scc=2.49777e-05 $X=14870 $Y=46970 $dt=0
M55 170 a<0> 106 gnd g45n1svt L=4.5e-08 W=1.2e-07 AD=7.2e-15 AS=1.68e-14 PD=3.6e-07 PS=5.2e-07 fw=1.2e-07 sa=1.4e-07 sb=2.45e-07 sca=7.11756 scb=0.00354063 scc=2.49777e-05 $X=14870 $Y=47770 $dt=0
M56 gnd b<2> 163 gnd g45n1svt L=4.5e-08 W=1.2e-07 AD=1.68e-14 AS=7.2e-15 PD=5.2e-07 PS=3.6e-07 fw=1.2e-07 sa=2.45e-07 sb=1.4e-07 sca=7.11756 scb=0.00354063 scc=2.49777e-05 $X=15080 $Y=33340 $dt=0
M57 gnd b<2> 164 gnd g45n1svt L=4.5e-08 W=1.2e-07 AD=1.68e-14 AS=7.2e-15 PD=5.2e-07 PS=3.6e-07 fw=1.2e-07 sa=2.45e-07 sb=1.4e-07 sca=7.11756 scb=0.00354063 scc=2.49777e-05 $X=15080 $Y=34140 $dt=0
M58 gnd b<2> 165 gnd g45n1svt L=4.5e-08 W=1.2e-07 AD=1.68e-14 AS=7.2e-15 PD=5.2e-07 PS=3.6e-07 fw=1.2e-07 sa=2.45e-07 sb=1.4e-07 sca=7.11756 scb=0.00354063 scc=2.49777e-05 $X=15080 $Y=37890 $dt=0
M59 gnd b<2> 166 gnd g45n1svt L=4.5e-08 W=1.2e-07 AD=1.68e-14 AS=7.2e-15 PD=5.2e-07 PS=3.6e-07 fw=1.2e-07 sa=2.45e-07 sb=1.4e-07 sca=7.11756 scb=0.00354063 scc=2.49777e-05 $X=15080 $Y=38690 $dt=0
M60 gnd b<2> 167 gnd g45n1svt L=4.5e-08 W=1.2e-07 AD=1.68e-14 AS=7.2e-15 PD=5.2e-07 PS=3.6e-07 fw=1.2e-07 sa=2.45e-07 sb=1.4e-07 sca=7.11756 scb=0.00354063 scc=2.49777e-05 $X=15080 $Y=42430 $dt=0
M61 gnd b<2> 168 gnd g45n1svt L=4.5e-08 W=1.2e-07 AD=1.68e-14 AS=7.2e-15 PD=5.2e-07 PS=3.6e-07 fw=1.2e-07 sa=2.45e-07 sb=1.4e-07 sca=7.11756 scb=0.00354063 scc=2.49777e-05 $X=15080 $Y=43230 $dt=0
M62 gnd b<2> 169 gnd g45n1svt L=4.5e-08 W=1.2e-07 AD=1.68e-14 AS=7.2e-15 PD=5.2e-07 PS=3.6e-07 fw=1.2e-07 sa=2.45e-07 sb=1.4e-07 sca=7.11756 scb=0.00354063 scc=2.49777e-05 $X=15080 $Y=46970 $dt=0
M63 gnd b<2> 170 gnd g45n1svt L=4.5e-08 W=1.2e-07 AD=1.68e-14 AS=7.2e-15 PD=5.2e-07 PS=3.6e-07 fw=1.2e-07 sa=2.45e-07 sb=1.4e-07 sca=7.11756 scb=0.00354063 scc=2.49777e-05 $X=15080 $Y=47770 $dt=0
M64 p27 99 gnd gnd g45n1svt L=4.5e-08 W=1.2e-07 AD=1.68e-14 AS=1.68e-14 PD=5.2e-07 PS=5.2e-07 fw=1.2e-07 sa=1.4e-07 sb=1.4e-07 sca=7.05259 scb=0.00341442 scc=2.28378e-05 $X=17500 $Y=33350 $dt=0
M65 p26 100 gnd gnd g45n1svt L=4.5e-08 W=1.2e-07 AD=1.68e-14 AS=1.68e-14 PD=5.2e-07 PS=5.2e-07 fw=1.2e-07 sa=1.4e-07 sb=1.4e-07 sca=7.05259 scb=0.00341442 scc=2.28378e-05 $X=17500 $Y=34130 $dt=0
M66 p25 101 gnd gnd g45n1svt L=4.5e-08 W=1.2e-07 AD=1.68e-14 AS=1.68e-14 PD=5.2e-07 PS=5.2e-07 fw=1.2e-07 sa=1.4e-07 sb=1.4e-07 sca=7.05259 scb=0.00341442 scc=2.28378e-05 $X=17500 $Y=37900 $dt=0
M67 p24 102 gnd gnd g45n1svt L=4.5e-08 W=1.2e-07 AD=1.68e-14 AS=1.68e-14 PD=5.2e-07 PS=5.2e-07 fw=1.2e-07 sa=1.4e-07 sb=1.4e-07 sca=7.05259 scb=0.00341442 scc=2.28378e-05 $X=17500 $Y=38680 $dt=0
M68 p23 103 gnd gnd g45n1svt L=4.5e-08 W=1.2e-07 AD=1.68e-14 AS=1.68e-14 PD=5.2e-07 PS=5.2e-07 fw=1.2e-07 sa=1.4e-07 sb=1.4e-07 sca=7.05259 scb=0.00341442 scc=2.28378e-05 $X=17500 $Y=42440 $dt=0
M69 p22 104 gnd gnd g45n1svt L=4.5e-08 W=1.2e-07 AD=1.68e-14 AS=1.68e-14 PD=5.2e-07 PS=5.2e-07 fw=1.2e-07 sa=1.4e-07 sb=1.4e-07 sca=7.05259 scb=0.00341442 scc=2.28378e-05 $X=17500 $Y=43220 $dt=0
M70 p21 105 gnd gnd g45n1svt L=4.5e-08 W=1.2e-07 AD=1.68e-14 AS=1.68e-14 PD=5.2e-07 PS=5.2e-07 fw=1.2e-07 sa=1.4e-07 sb=1.4e-07 sca=7.05259 scb=0.00341442 scc=2.28378e-05 $X=17500 $Y=46980 $dt=0
M71 p20 106 gnd gnd g45n1svt L=4.5e-08 W=1.2e-07 AD=1.68e-14 AS=1.68e-14 PD=5.2e-07 PS=5.2e-07 fw=1.2e-07 sa=1.4e-07 sb=1.4e-07 sca=7.05259 scb=0.00341442 scc=2.28378e-05 $X=17500 $Y=47760 $dt=0
M72 171 a<7> 107 gnd g45n1svt L=4.5e-08 W=1.2e-07 AD=7.2e-15 AS=1.68e-14 PD=3.6e-07 PS=5.2e-07 fw=1.2e-07 sa=1.4e-07 sb=2.45e-07 sca=7.11756 scb=0.00354063 scc=2.49777e-05 $X=20000 $Y=33340 $dt=0
M73 172 a<6> 108 gnd g45n1svt L=4.5e-08 W=1.2e-07 AD=7.2e-15 AS=1.68e-14 PD=3.6e-07 PS=5.2e-07 fw=1.2e-07 sa=1.4e-07 sb=2.45e-07 sca=7.11756 scb=0.00354063 scc=2.49777e-05 $X=20000 $Y=34140 $dt=0
M74 173 a<5> 109 gnd g45n1svt L=4.5e-08 W=1.2e-07 AD=7.2e-15 AS=1.68e-14 PD=3.6e-07 PS=5.2e-07 fw=1.2e-07 sa=1.4e-07 sb=2.45e-07 sca=7.11756 scb=0.00354063 scc=2.49777e-05 $X=20000 $Y=37890 $dt=0
M75 174 a<4> 110 gnd g45n1svt L=4.5e-08 W=1.2e-07 AD=7.2e-15 AS=1.68e-14 PD=3.6e-07 PS=5.2e-07 fw=1.2e-07 sa=1.4e-07 sb=2.45e-07 sca=7.11756 scb=0.00354063 scc=2.49777e-05 $X=20000 $Y=38690 $dt=0
M76 175 a<3> 111 gnd g45n1svt L=4.5e-08 W=1.2e-07 AD=7.2e-15 AS=1.68e-14 PD=3.6e-07 PS=5.2e-07 fw=1.2e-07 sa=1.4e-07 sb=2.45e-07 sca=7.11756 scb=0.00354063 scc=2.49777e-05 $X=20000 $Y=42430 $dt=0
M77 176 a<2> 112 gnd g45n1svt L=4.5e-08 W=1.2e-07 AD=7.2e-15 AS=1.68e-14 PD=3.6e-07 PS=5.2e-07 fw=1.2e-07 sa=1.4e-07 sb=2.45e-07 sca=7.11756 scb=0.00354063 scc=2.49777e-05 $X=20000 $Y=43230 $dt=0
M78 177 a<1> 113 gnd g45n1svt L=4.5e-08 W=1.2e-07 AD=7.2e-15 AS=1.68e-14 PD=3.6e-07 PS=5.2e-07 fw=1.2e-07 sa=1.4e-07 sb=2.45e-07 sca=7.11756 scb=0.00354063 scc=2.49777e-05 $X=20000 $Y=46970 $dt=0
M79 178 a<0> 114 gnd g45n1svt L=4.5e-08 W=1.2e-07 AD=7.2e-15 AS=1.68e-14 PD=3.6e-07 PS=5.2e-07 fw=1.2e-07 sa=1.4e-07 sb=2.45e-07 sca=7.11756 scb=0.00354063 scc=2.49777e-05 $X=20000 $Y=47770 $dt=0
M80 gnd b<3> 171 gnd g45n1svt L=4.5e-08 W=1.2e-07 AD=1.68e-14 AS=7.2e-15 PD=5.2e-07 PS=3.6e-07 fw=1.2e-07 sa=2.45e-07 sb=1.4e-07 sca=7.11756 scb=0.00354063 scc=2.49777e-05 $X=20210 $Y=33340 $dt=0
M81 gnd b<3> 172 gnd g45n1svt L=4.5e-08 W=1.2e-07 AD=1.68e-14 AS=7.2e-15 PD=5.2e-07 PS=3.6e-07 fw=1.2e-07 sa=2.45e-07 sb=1.4e-07 sca=7.11756 scb=0.00354063 scc=2.49777e-05 $X=20210 $Y=34140 $dt=0
M82 gnd b<3> 173 gnd g45n1svt L=4.5e-08 W=1.2e-07 AD=1.68e-14 AS=7.2e-15 PD=5.2e-07 PS=3.6e-07 fw=1.2e-07 sa=2.45e-07 sb=1.4e-07 sca=7.11756 scb=0.00354063 scc=2.49777e-05 $X=20210 $Y=37890 $dt=0
M83 gnd b<3> 174 gnd g45n1svt L=4.5e-08 W=1.2e-07 AD=1.68e-14 AS=7.2e-15 PD=5.2e-07 PS=3.6e-07 fw=1.2e-07 sa=2.45e-07 sb=1.4e-07 sca=7.11756 scb=0.00354063 scc=2.49777e-05 $X=20210 $Y=38690 $dt=0
M84 gnd b<3> 175 gnd g45n1svt L=4.5e-08 W=1.2e-07 AD=1.68e-14 AS=7.2e-15 PD=5.2e-07 PS=3.6e-07 fw=1.2e-07 sa=2.45e-07 sb=1.4e-07 sca=7.11756 scb=0.00354063 scc=2.49777e-05 $X=20210 $Y=42430 $dt=0
M85 gnd b<3> 176 gnd g45n1svt L=4.5e-08 W=1.2e-07 AD=1.68e-14 AS=7.2e-15 PD=5.2e-07 PS=3.6e-07 fw=1.2e-07 sa=2.45e-07 sb=1.4e-07 sca=7.11756 scb=0.00354063 scc=2.49777e-05 $X=20210 $Y=43230 $dt=0
M86 gnd b<3> 177 gnd g45n1svt L=4.5e-08 W=1.2e-07 AD=1.68e-14 AS=7.2e-15 PD=5.2e-07 PS=3.6e-07 fw=1.2e-07 sa=2.45e-07 sb=1.4e-07 sca=7.11756 scb=0.00354063 scc=2.49777e-05 $X=20210 $Y=46970 $dt=0
M87 gnd b<3> 178 gnd g45n1svt L=4.5e-08 W=1.2e-07 AD=1.68e-14 AS=7.2e-15 PD=5.2e-07 PS=3.6e-07 fw=1.2e-07 sa=2.45e-07 sb=1.4e-07 sca=7.11756 scb=0.00354063 scc=2.49777e-05 $X=20210 $Y=47770 $dt=0
M88 p37 107 gnd gnd g45n1svt L=4.5e-08 W=1.2e-07 AD=1.68e-14 AS=1.68e-14 PD=5.2e-07 PS=5.2e-07 fw=1.2e-07 sa=1.4e-07 sb=1.4e-07 sca=7.05259 scb=0.00341442 scc=2.28378e-05 $X=22630 $Y=33350 $dt=0
M89 p36 108 gnd gnd g45n1svt L=4.5e-08 W=1.2e-07 AD=1.68e-14 AS=1.68e-14 PD=5.2e-07 PS=5.2e-07 fw=1.2e-07 sa=1.4e-07 sb=1.4e-07 sca=7.05259 scb=0.00341442 scc=2.28378e-05 $X=22630 $Y=34130 $dt=0
M90 p35 109 gnd gnd g45n1svt L=4.5e-08 W=1.2e-07 AD=1.68e-14 AS=1.68e-14 PD=5.2e-07 PS=5.2e-07 fw=1.2e-07 sa=1.4e-07 sb=1.4e-07 sca=7.05259 scb=0.00341442 scc=2.28378e-05 $X=22630 $Y=37900 $dt=0
M91 p34 110 gnd gnd g45n1svt L=4.5e-08 W=1.2e-07 AD=1.68e-14 AS=1.68e-14 PD=5.2e-07 PS=5.2e-07 fw=1.2e-07 sa=1.4e-07 sb=1.4e-07 sca=7.05259 scb=0.00341442 scc=2.28378e-05 $X=22630 $Y=38680 $dt=0
M92 p33 111 gnd gnd g45n1svt L=4.5e-08 W=1.2e-07 AD=1.68e-14 AS=1.68e-14 PD=5.2e-07 PS=5.2e-07 fw=1.2e-07 sa=1.4e-07 sb=1.4e-07 sca=7.05259 scb=0.00341442 scc=2.28378e-05 $X=22630 $Y=42440 $dt=0
M93 p32 112 gnd gnd g45n1svt L=4.5e-08 W=1.2e-07 AD=1.68e-14 AS=1.68e-14 PD=5.2e-07 PS=5.2e-07 fw=1.2e-07 sa=1.4e-07 sb=1.4e-07 sca=7.05259 scb=0.00341442 scc=2.28378e-05 $X=22630 $Y=43220 $dt=0
M94 p31 113 gnd gnd g45n1svt L=4.5e-08 W=1.2e-07 AD=1.68e-14 AS=1.68e-14 PD=5.2e-07 PS=5.2e-07 fw=1.2e-07 sa=1.4e-07 sb=1.4e-07 sca=7.05259 scb=0.00341442 scc=2.28378e-05 $X=22630 $Y=46980 $dt=0
M95 p30 114 gnd gnd g45n1svt L=4.5e-08 W=1.2e-07 AD=1.68e-14 AS=1.68e-14 PD=5.2e-07 PS=5.2e-07 fw=1.2e-07 sa=1.4e-07 sb=1.4e-07 sca=7.05259 scb=0.00341442 scc=2.28378e-05 $X=22630 $Y=47760 $dt=0
M96 179 a<7> 115 gnd g45n1svt L=4.5e-08 W=1.2e-07 AD=7.2e-15 AS=1.68e-14 PD=3.6e-07 PS=5.2e-07 fw=1.2e-07 sa=1.4e-07 sb=2.45e-07 sca=7.11756 scb=0.00354063 scc=2.49777e-05 $X=25070 $Y=33340 $dt=0
M97 180 a<6> 116 gnd g45n1svt L=4.5e-08 W=1.2e-07 AD=7.2e-15 AS=1.68e-14 PD=3.6e-07 PS=5.2e-07 fw=1.2e-07 sa=1.4e-07 sb=2.45e-07 sca=7.11756 scb=0.00354063 scc=2.49777e-05 $X=25070 $Y=34140 $dt=0
M98 181 a<5> 117 gnd g45n1svt L=4.5e-08 W=1.2e-07 AD=7.2e-15 AS=1.68e-14 PD=3.6e-07 PS=5.2e-07 fw=1.2e-07 sa=1.4e-07 sb=2.45e-07 sca=7.11756 scb=0.00354063 scc=2.49777e-05 $X=25070 $Y=37890 $dt=0
M99 182 a<4> 118 gnd g45n1svt L=4.5e-08 W=1.2e-07 AD=7.2e-15 AS=1.68e-14 PD=3.6e-07 PS=5.2e-07 fw=1.2e-07 sa=1.4e-07 sb=2.45e-07 sca=7.11756 scb=0.00354063 scc=2.49777e-05 $X=25070 $Y=38690 $dt=0
M100 183 a<3> 119 gnd g45n1svt L=4.5e-08 W=1.2e-07 AD=7.2e-15 AS=1.68e-14 PD=3.6e-07 PS=5.2e-07 fw=1.2e-07 sa=1.4e-07 sb=2.45e-07 sca=7.11756 scb=0.00354063 scc=2.49777e-05 $X=25070 $Y=42430 $dt=0
M101 184 a<2> 120 gnd g45n1svt L=4.5e-08 W=1.2e-07 AD=7.2e-15 AS=1.68e-14 PD=3.6e-07 PS=5.2e-07 fw=1.2e-07 sa=1.4e-07 sb=2.45e-07 sca=7.11756 scb=0.00354063 scc=2.49777e-05 $X=25070 $Y=43230 $dt=0
M102 185 a<1> 121 gnd g45n1svt L=4.5e-08 W=1.2e-07 AD=7.2e-15 AS=1.68e-14 PD=3.6e-07 PS=5.2e-07 fw=1.2e-07 sa=1.4e-07 sb=2.45e-07 sca=7.11756 scb=0.00354063 scc=2.49777e-05 $X=25070 $Y=46970 $dt=0
M103 186 a<0> 122 gnd g45n1svt L=4.5e-08 W=1.2e-07 AD=7.2e-15 AS=1.68e-14 PD=3.6e-07 PS=5.2e-07 fw=1.2e-07 sa=1.4e-07 sb=2.45e-07 sca=7.11756 scb=0.00354063 scc=2.49777e-05 $X=25070 $Y=47770 $dt=0
M104 gnd b<4> 179 gnd g45n1svt L=4.5e-08 W=1.2e-07 AD=1.68e-14 AS=7.2e-15 PD=5.2e-07 PS=3.6e-07 fw=1.2e-07 sa=2.45e-07 sb=1.4e-07 sca=7.11756 scb=0.00354063 scc=2.49777e-05 $X=25280 $Y=33340 $dt=0
M105 gnd b<4> 180 gnd g45n1svt L=4.5e-08 W=1.2e-07 AD=1.68e-14 AS=7.2e-15 PD=5.2e-07 PS=3.6e-07 fw=1.2e-07 sa=2.45e-07 sb=1.4e-07 sca=7.11756 scb=0.00354063 scc=2.49777e-05 $X=25280 $Y=34140 $dt=0
M106 gnd b<4> 181 gnd g45n1svt L=4.5e-08 W=1.2e-07 AD=1.68e-14 AS=7.2e-15 PD=5.2e-07 PS=3.6e-07 fw=1.2e-07 sa=2.45e-07 sb=1.4e-07 sca=7.11756 scb=0.00354063 scc=2.49777e-05 $X=25280 $Y=37890 $dt=0
M107 gnd b<4> 182 gnd g45n1svt L=4.5e-08 W=1.2e-07 AD=1.68e-14 AS=7.2e-15 PD=5.2e-07 PS=3.6e-07 fw=1.2e-07 sa=2.45e-07 sb=1.4e-07 sca=7.11756 scb=0.00354063 scc=2.49777e-05 $X=25280 $Y=38690 $dt=0
M108 gnd b<4> 183 gnd g45n1svt L=4.5e-08 W=1.2e-07 AD=1.68e-14 AS=7.2e-15 PD=5.2e-07 PS=3.6e-07 fw=1.2e-07 sa=2.45e-07 sb=1.4e-07 sca=7.11756 scb=0.00354063 scc=2.49777e-05 $X=25280 $Y=42430 $dt=0
M109 gnd b<4> 184 gnd g45n1svt L=4.5e-08 W=1.2e-07 AD=1.68e-14 AS=7.2e-15 PD=5.2e-07 PS=3.6e-07 fw=1.2e-07 sa=2.45e-07 sb=1.4e-07 sca=7.11756 scb=0.00354063 scc=2.49777e-05 $X=25280 $Y=43230 $dt=0
M110 gnd b<4> 185 gnd g45n1svt L=4.5e-08 W=1.2e-07 AD=1.68e-14 AS=7.2e-15 PD=5.2e-07 PS=3.6e-07 fw=1.2e-07 sa=2.45e-07 sb=1.4e-07 sca=7.11756 scb=0.00354063 scc=2.49777e-05 $X=25280 $Y=46970 $dt=0
M111 gnd b<4> 186 gnd g45n1svt L=4.5e-08 W=1.2e-07 AD=1.68e-14 AS=7.2e-15 PD=5.2e-07 PS=3.6e-07 fw=1.2e-07 sa=2.45e-07 sb=1.4e-07 sca=7.11756 scb=0.00354063 scc=2.49777e-05 $X=25280 $Y=47770 $dt=0
M112 p47 115 gnd gnd g45n1svt L=4.5e-08 W=1.2e-07 AD=1.68e-14 AS=1.68e-14 PD=5.2e-07 PS=5.2e-07 fw=1.2e-07 sa=1.4e-07 sb=1.4e-07 sca=7.05259 scb=0.00341442 scc=2.28378e-05 $X=27700 $Y=33350 $dt=0
M113 p46 116 gnd gnd g45n1svt L=4.5e-08 W=1.2e-07 AD=1.68e-14 AS=1.68e-14 PD=5.2e-07 PS=5.2e-07 fw=1.2e-07 sa=1.4e-07 sb=1.4e-07 sca=7.05259 scb=0.00341442 scc=2.28378e-05 $X=27700 $Y=34130 $dt=0
M114 p45 117 gnd gnd g45n1svt L=4.5e-08 W=1.2e-07 AD=1.68e-14 AS=1.68e-14 PD=5.2e-07 PS=5.2e-07 fw=1.2e-07 sa=1.4e-07 sb=1.4e-07 sca=7.05259 scb=0.00341442 scc=2.28378e-05 $X=27700 $Y=37900 $dt=0
M115 p44 118 gnd gnd g45n1svt L=4.5e-08 W=1.2e-07 AD=1.68e-14 AS=1.68e-14 PD=5.2e-07 PS=5.2e-07 fw=1.2e-07 sa=1.4e-07 sb=1.4e-07 sca=7.05259 scb=0.00341442 scc=2.28378e-05 $X=27700 $Y=38680 $dt=0
M116 p43 119 gnd gnd g45n1svt L=4.5e-08 W=1.2e-07 AD=1.68e-14 AS=1.68e-14 PD=5.2e-07 PS=5.2e-07 fw=1.2e-07 sa=1.4e-07 sb=1.4e-07 sca=7.05259 scb=0.00341442 scc=2.28378e-05 $X=27700 $Y=42440 $dt=0
M117 p42 120 gnd gnd g45n1svt L=4.5e-08 W=1.2e-07 AD=1.68e-14 AS=1.68e-14 PD=5.2e-07 PS=5.2e-07 fw=1.2e-07 sa=1.4e-07 sb=1.4e-07 sca=7.05259 scb=0.00341442 scc=2.28378e-05 $X=27700 $Y=43220 $dt=0
M118 p41 121 gnd gnd g45n1svt L=4.5e-08 W=1.2e-07 AD=1.68e-14 AS=1.68e-14 PD=5.2e-07 PS=5.2e-07 fw=1.2e-07 sa=1.4e-07 sb=1.4e-07 sca=7.05259 scb=0.00341442 scc=2.28378e-05 $X=27700 $Y=46980 $dt=0
M119 p40 122 gnd gnd g45n1svt L=4.5e-08 W=1.2e-07 AD=1.68e-14 AS=1.68e-14 PD=5.2e-07 PS=5.2e-07 fw=1.2e-07 sa=1.4e-07 sb=1.4e-07 sca=7.05259 scb=0.00341442 scc=2.28378e-05 $X=27700 $Y=47760 $dt=0
M120 187 a<7> 123 gnd g45n1svt L=4.5e-08 W=1.2e-07 AD=7.2e-15 AS=1.68e-14 PD=3.6e-07 PS=5.2e-07 fw=1.2e-07 sa=1.4e-07 sb=2.45e-07 sca=7.11756 scb=0.00354063 scc=2.49777e-05 $X=29940 $Y=33340 $dt=0
M121 188 a<6> 124 gnd g45n1svt L=4.5e-08 W=1.2e-07 AD=7.2e-15 AS=1.68e-14 PD=3.6e-07 PS=5.2e-07 fw=1.2e-07 sa=1.4e-07 sb=2.45e-07 sca=7.11756 scb=0.00354063 scc=2.49777e-05 $X=29940 $Y=34140 $dt=0
M122 189 a<5> 125 gnd g45n1svt L=4.5e-08 W=1.2e-07 AD=7.2e-15 AS=1.68e-14 PD=3.6e-07 PS=5.2e-07 fw=1.2e-07 sa=1.4e-07 sb=2.45e-07 sca=7.11756 scb=0.00354063 scc=2.49777e-05 $X=29940 $Y=37890 $dt=0
M123 190 a<4> 126 gnd g45n1svt L=4.5e-08 W=1.2e-07 AD=7.2e-15 AS=1.68e-14 PD=3.6e-07 PS=5.2e-07 fw=1.2e-07 sa=1.4e-07 sb=2.45e-07 sca=7.11756 scb=0.00354063 scc=2.49777e-05 $X=29940 $Y=38690 $dt=0
M124 191 a<3> 127 gnd g45n1svt L=4.5e-08 W=1.2e-07 AD=7.2e-15 AS=1.68e-14 PD=3.6e-07 PS=5.2e-07 fw=1.2e-07 sa=1.4e-07 sb=2.45e-07 sca=7.11756 scb=0.00354063 scc=2.49777e-05 $X=29940 $Y=42430 $dt=0
M125 192 a<2> 128 gnd g45n1svt L=4.5e-08 W=1.2e-07 AD=7.2e-15 AS=1.68e-14 PD=3.6e-07 PS=5.2e-07 fw=1.2e-07 sa=1.4e-07 sb=2.45e-07 sca=7.11756 scb=0.00354063 scc=2.49777e-05 $X=29940 $Y=43230 $dt=0
M126 193 a<1> 129 gnd g45n1svt L=4.5e-08 W=1.2e-07 AD=7.2e-15 AS=1.68e-14 PD=3.6e-07 PS=5.2e-07 fw=1.2e-07 sa=1.4e-07 sb=2.45e-07 sca=7.11756 scb=0.00354063 scc=2.49777e-05 $X=29940 $Y=46970 $dt=0
M127 194 a<0> 130 gnd g45n1svt L=4.5e-08 W=1.2e-07 AD=7.2e-15 AS=1.68e-14 PD=3.6e-07 PS=5.2e-07 fw=1.2e-07 sa=1.4e-07 sb=2.45e-07 sca=7.11756 scb=0.00354063 scc=2.49777e-05 $X=29940 $Y=47770 $dt=0
M128 gnd b<5> 187 gnd g45n1svt L=4.5e-08 W=1.2e-07 AD=1.68e-14 AS=7.2e-15 PD=5.2e-07 PS=3.6e-07 fw=1.2e-07 sa=2.45e-07 sb=1.4e-07 sca=7.11756 scb=0.00354063 scc=2.49777e-05 $X=30150 $Y=33340 $dt=0
M129 gnd b<5> 188 gnd g45n1svt L=4.5e-08 W=1.2e-07 AD=1.68e-14 AS=7.2e-15 PD=5.2e-07 PS=3.6e-07 fw=1.2e-07 sa=2.45e-07 sb=1.4e-07 sca=7.11756 scb=0.00354063 scc=2.49777e-05 $X=30150 $Y=34140 $dt=0
M130 gnd b<5> 189 gnd g45n1svt L=4.5e-08 W=1.2e-07 AD=1.68e-14 AS=7.2e-15 PD=5.2e-07 PS=3.6e-07 fw=1.2e-07 sa=2.45e-07 sb=1.4e-07 sca=7.11756 scb=0.00354063 scc=2.49777e-05 $X=30150 $Y=37890 $dt=0
M131 gnd b<5> 190 gnd g45n1svt L=4.5e-08 W=1.2e-07 AD=1.68e-14 AS=7.2e-15 PD=5.2e-07 PS=3.6e-07 fw=1.2e-07 sa=2.45e-07 sb=1.4e-07 sca=7.11756 scb=0.00354063 scc=2.49777e-05 $X=30150 $Y=38690 $dt=0
M132 gnd b<5> 191 gnd g45n1svt L=4.5e-08 W=1.2e-07 AD=1.68e-14 AS=7.2e-15 PD=5.2e-07 PS=3.6e-07 fw=1.2e-07 sa=2.45e-07 sb=1.4e-07 sca=7.11756 scb=0.00354063 scc=2.49777e-05 $X=30150 $Y=42430 $dt=0
M133 gnd b<5> 192 gnd g45n1svt L=4.5e-08 W=1.2e-07 AD=1.68e-14 AS=7.2e-15 PD=5.2e-07 PS=3.6e-07 fw=1.2e-07 sa=2.45e-07 sb=1.4e-07 sca=7.11756 scb=0.00354063 scc=2.49777e-05 $X=30150 $Y=43230 $dt=0
M134 gnd b<5> 193 gnd g45n1svt L=4.5e-08 W=1.2e-07 AD=1.68e-14 AS=7.2e-15 PD=5.2e-07 PS=3.6e-07 fw=1.2e-07 sa=2.45e-07 sb=1.4e-07 sca=7.11756 scb=0.00354063 scc=2.49777e-05 $X=30150 $Y=46970 $dt=0
M135 gnd b<5> 194 gnd g45n1svt L=4.5e-08 W=1.2e-07 AD=1.68e-14 AS=7.2e-15 PD=5.2e-07 PS=3.6e-07 fw=1.2e-07 sa=2.45e-07 sb=1.4e-07 sca=7.11756 scb=0.00354063 scc=2.49777e-05 $X=30150 $Y=47770 $dt=0
M136 p57 123 gnd gnd g45n1svt L=4.5e-08 W=1.2e-07 AD=1.68e-14 AS=1.68e-14 PD=5.2e-07 PS=5.2e-07 fw=1.2e-07 sa=1.4e-07 sb=1.4e-07 sca=7.05259 scb=0.00341442 scc=2.28378e-05 $X=32570 $Y=33350 $dt=0
M137 p56 124 gnd gnd g45n1svt L=4.5e-08 W=1.2e-07 AD=1.68e-14 AS=1.68e-14 PD=5.2e-07 PS=5.2e-07 fw=1.2e-07 sa=1.4e-07 sb=1.4e-07 sca=7.05259 scb=0.00341442 scc=2.28378e-05 $X=32570 $Y=34130 $dt=0
M138 p55 125 gnd gnd g45n1svt L=4.5e-08 W=1.2e-07 AD=1.68e-14 AS=1.68e-14 PD=5.2e-07 PS=5.2e-07 fw=1.2e-07 sa=1.4e-07 sb=1.4e-07 sca=7.05259 scb=0.00341442 scc=2.28378e-05 $X=32570 $Y=37900 $dt=0
M139 p54 126 gnd gnd g45n1svt L=4.5e-08 W=1.2e-07 AD=1.68e-14 AS=1.68e-14 PD=5.2e-07 PS=5.2e-07 fw=1.2e-07 sa=1.4e-07 sb=1.4e-07 sca=7.05259 scb=0.00341442 scc=2.28378e-05 $X=32570 $Y=38680 $dt=0
M140 p53 127 gnd gnd g45n1svt L=4.5e-08 W=1.2e-07 AD=1.68e-14 AS=1.68e-14 PD=5.2e-07 PS=5.2e-07 fw=1.2e-07 sa=1.4e-07 sb=1.4e-07 sca=7.05259 scb=0.00341442 scc=2.28378e-05 $X=32570 $Y=42440 $dt=0
M141 p52 128 gnd gnd g45n1svt L=4.5e-08 W=1.2e-07 AD=1.68e-14 AS=1.68e-14 PD=5.2e-07 PS=5.2e-07 fw=1.2e-07 sa=1.4e-07 sb=1.4e-07 sca=7.05259 scb=0.00341442 scc=2.28378e-05 $X=32570 $Y=43220 $dt=0
M142 p51 129 gnd gnd g45n1svt L=4.5e-08 W=1.2e-07 AD=1.68e-14 AS=1.68e-14 PD=5.2e-07 PS=5.2e-07 fw=1.2e-07 sa=1.4e-07 sb=1.4e-07 sca=7.05259 scb=0.00341442 scc=2.28378e-05 $X=32570 $Y=46980 $dt=0
M143 p50 130 gnd gnd g45n1svt L=4.5e-08 W=1.2e-07 AD=1.68e-14 AS=1.68e-14 PD=5.2e-07 PS=5.2e-07 fw=1.2e-07 sa=1.4e-07 sb=1.4e-07 sca=7.05259 scb=0.00341442 scc=2.28378e-05 $X=32570 $Y=47760 $dt=0
M144 195 a<7> 131 gnd g45n1svt L=4.5e-08 W=1.2e-07 AD=7.2e-15 AS=1.68e-14 PD=3.6e-07 PS=5.2e-07 fw=1.2e-07 sa=1.4e-07 sb=2.45e-07 sca=7.13128 scb=0.00354568 scc=2.49792e-05 $X=35160 $Y=33350 $dt=0
M145 196 a<6> 132 gnd g45n1svt L=4.5e-08 W=1.2e-07 AD=7.2e-15 AS=1.68e-14 PD=3.6e-07 PS=5.2e-07 fw=1.2e-07 sa=1.4e-07 sb=2.45e-07 sca=7.13128 scb=0.00354568 scc=2.49792e-05 $X=35160 $Y=34140 $dt=0
M146 197 a<5> 133 gnd g45n1svt L=4.5e-08 W=1.2e-07 AD=7.2e-15 AS=1.68e-14 PD=3.6e-07 PS=5.2e-07 fw=1.2e-07 sa=1.4e-07 sb=2.45e-07 sca=7.11756 scb=0.00354063 scc=2.49777e-05 $X=35160 $Y=37890 $dt=0