* +++++++++++++++++++++++++++++++++++++++++++++++++++++++++ *
* CDL Netlist:                                              *
*                                                           *
* Cell Name  : MAC                                          *
* Netlisted  : Sat Dec 13 19:55:05 2025                     *
* PVS Version: 23.11-s036 Wed Jan 17 18:11:41 PST 2024      *
* +++++++++++++++++++++++++++++++++++++++++++++++++++++++++ *
*.LDD
*.DEVTMPLT 0 MN(g45n1svt) _nmos1v ndiff_conn(D) poly_conn(G) ndiff_conn(S) psubstrate(B)
*.DEVTMPLT 1 MP(g45p1svt) _pmos1v pdiff_conn(D) poly_conn(G) pdiff_conn(S) nwell_conn(B)

* +++++++++++++++++++++++++++++++++++++++++++++++++++++++++ *
* Sub cell: M3_M2_CDNS_765673699960                         *
* +++++++++++++++++++++++++++++++++++++++++++++++++++++++++ *
.subckt M3_M2_CDNS_765673699960 1
** N=1 EP=1 FDC=0
.ends M3_M2_CDNS_765673699960

* +++++++++++++++++++++++++++++++++++++++++++++++++++++++++ *
* Sub cell: M4_M3_CDNS_765673699961                         *
* +++++++++++++++++++++++++++++++++++++++++++++++++++++++++ *
.subckt M4_M3_CDNS_765673699961 1
** N=1 EP=1 FDC=0
.ends M4_M3_CDNS_765673699961

* +++++++++++++++++++++++++++++++++++++++++++++++++++++++++ *
* Sub cell: M5_M4_CDNS_765673699962                         *
* +++++++++++++++++++++++++++++++++++++++++++++++++++++++++ *
.subckt M5_M4_CDNS_765673699962 1
** N=1 EP=1 FDC=0
.ends M5_M4_CDNS_765673699962

* +++++++++++++++++++++++++++++++++++++++++++++++++++++++++ *
* Sub cell: M6_M5_CDNS_765673699963                         *
* +++++++++++++++++++++++++++++++++++++++++++++++++++++++++ *
.subckt M6_M5_CDNS_765673699963 1
** N=1 EP=1 FDC=0
.ends M6_M5_CDNS_765673699963

* +++++++++++++++++++++++++++++++++++++++++++++++++++++++++ *
* Sub cell: M3_M2_CDNS_765673699964                         *
* +++++++++++++++++++++++++++++++++++++++++++++++++++++++++ *
.subckt M3_M2_CDNS_765673699964 1
** N=1 EP=1 FDC=0
.ends M3_M2_CDNS_765673699964

* +++++++++++++++++++++++++++++++++++++++++++++++++++++++++ *
* Sub cell: M4_M3_CDNS_765673699965                         *
* +++++++++++++++++++++++++++++++++++++++++++++++++++++++++ *
.subckt M4_M3_CDNS_765673699965 1
** N=1 EP=1 FDC=0
.ends M4_M3_CDNS_765673699965

* +++++++++++++++++++++++++++++++++++++++++++++++++++++++++ *
* Sub cell: M3_M2_CDNS_765673699966                         *
* +++++++++++++++++++++++++++++++++++++++++++++++++++++++++ *
.subckt M3_M2_CDNS_765673699966 1
** N=1 EP=1 FDC=0
.ends M3_M2_CDNS_765673699966

* +++++++++++++++++++++++++++++++++++++++++++++++++++++++++ *
* Sub cell: M4_M3_CDNS_765673699967                         *
* +++++++++++++++++++++++++++++++++++++++++++++++++++++++++ *
.subckt M4_M3_CDNS_765673699967 1
** N=1 EP=1 FDC=0
.ends M4_M3_CDNS_765673699967

* +++++++++++++++++++++++++++++++++++++++++++++++++++++++++ *
* Sub cell: M5_M4_CDNS_765673699968                         *
* +++++++++++++++++++++++++++++++++++++++++++++++++++++++++ *
.subckt M5_M4_CDNS_765673699968 1
** N=1 EP=1 FDC=0
.ends M5_M4_CDNS_765673699968

* +++++++++++++++++++++++++++++++++++++++++++++++++++++++++ *
* Sub cell: M6_M5_CDNS_765673699969                         *
* +++++++++++++++++++++++++++++++++++++++++++++++++++++++++ *
.subckt M6_M5_CDNS_765673699969 1
** N=1 EP=1 FDC=0
.ends M6_M5_CDNS_765673699969

* +++++++++++++++++++++++++++++++++++++++++++++++++++++++++ *
* Sub cell: M2_M1_CDNS_7656736999610                        *
* +++++++++++++++++++++++++++++++++++++++++++++++++++++++++ *
.subckt M2_M1_CDNS_7656736999610 1
** N=1 EP=1 FDC=0
.ends M2_M1_CDNS_7656736999610

* +++++++++++++++++++++++++++++++++++++++++++++++++++++++++ *
* Sub cell: M2_M1_CDNS_7656736999611                        *
* +++++++++++++++++++++++++++++++++++++++++++++++++++++++++ *
.subckt M2_M1_CDNS_7656736999611 1
** N=1 EP=1 FDC=0
.ends M2_M1_CDNS_7656736999611

* +++++++++++++++++++++++++++++++++++++++++++++++++++++++++ *
* Sub cell: M2_M1_CDNS_7656736999612                        *
* +++++++++++++++++++++++++++++++++++++++++++++++++++++++++ *
.subckt M2_M1_CDNS_7656736999612 1
** N=1 EP=1 FDC=0
.ends M2_M1_CDNS_7656736999612

* +++++++++++++++++++++++++++++++++++++++++++++++++++++++++ *
* Sub cell: M1_PO_CDNS_7656736999614                        *
* +++++++++++++++++++++++++++++++++++++++++++++++++++++++++ *
.subckt M1_PO_CDNS_7656736999614 1
** N=1 EP=1 FDC=0
.ends M1_PO_CDNS_7656736999614

* +++++++++++++++++++++++++++++++++++++++++++++++++++++++++ *
* Sub cell: M1_PO_CDNS_7656736999615                        *
* +++++++++++++++++++++++++++++++++++++++++++++++++++++++++ *
.subckt M1_PO_CDNS_7656736999615 1
** N=1 EP=1 FDC=0
.ends M1_PO_CDNS_7656736999615

* +++++++++++++++++++++++++++++++++++++++++++++++++++++++++ *
* Sub cell: M2_M1_CDNS_7656736999616                        *
* +++++++++++++++++++++++++++++++++++++++++++++++++++++++++ *
.subckt M2_M1_CDNS_7656736999616 1
** N=1 EP=1 FDC=0
.ends M2_M1_CDNS_7656736999616

* +++++++++++++++++++++++++++++++++++++++++++++++++++++++++ *
* Sub cell: pmos1v_CDNS_765673699960                        *
* +++++++++++++++++++++++++++++++++++++++++++++++++++++++++ *
.subckt pmos1v_CDNS_765673699960 1 2 3 4 5
*.DEVICECLIMB
** N=5 EP=5 FDC=0
.ends pmos1v_CDNS_765673699960

* +++++++++++++++++++++++++++++++++++++++++++++++++++++++++ *
* Sub cell: nmos1v_CDNS_765673699961                        *
* +++++++++++++++++++++++++++++++++++++++++++++++++++++++++ *
.subckt nmos1v_CDNS_765673699961 1 2 3 4
** N=4 EP=4 FDC=1
M0 4 3 1 2 g45n1svt L=4.5e-08 W=1.2e-07 AD=1.68e-14 AS=1.68e-14 PD=5.2e-07 PS=5.2e-07 fw=1.2e-07 sa=1.4e-07 sb=1.4e-07 sca=3.69959 scb=0.00013007 scc=4.39142e-09 $X=0 $Y=0 $dt=0
.ends nmos1v_CDNS_765673699961

* +++++++++++++++++++++++++++++++++++++++++++++++++++++++++ *
* Sub cell: XOR                                             *
* +++++++++++++++++++++++++++++++++++++++++++++++++++++++++ *
.subckt XOR 1 2 3 4 5 6 7
*.DEVICECLIMB
** N=7 EP=7 FDC=4
X0 4 M3_M2_CDNS_765673699966 $T=1850 2810 0 90 $X=1600 $Y=2590
X1 4 M4_M3_CDNS_765673699967 $T=1850 2810 0 90 $X=1600 $Y=2590
X2 4 M5_M4_CDNS_765673699968 $T=1850 2810 0 90 $X=1600 $Y=2590
X3 4 M6_M5_CDNS_765673699969 $T=1850 2810 0 90 $X=1600 $Y=2590
X4 4 M2_M1_CDNS_7656736999610 $T=1850 2810 0 90 $X=1600 $Y=2590
X5 6 M2_M1_CDNS_7656736999611 $T=690 3330 0 0 $X=610 $Y=3200
X6 1 M2_M1_CDNS_7656736999611 $T=1190 1490 0 0 $X=1110 $Y=1360
X7 1 M2_M1_CDNS_7656736999611 $T=2520 1490 0 0 $X=2440 $Y=1360
X8 6 M2_M1_CDNS_7656736999611 $T=2550 3330 0 0 $X=2470 $Y=3200
X9 1 M1_PO_CDNS_7656736999614 $T=320 1490 0 0 $X=220 $Y=1240
X10 5 M1_PO_CDNS_7656736999614 $T=1540 2050 0 0 $X=1440 $Y=1800
X11 5 M1_PO_CDNS_7656736999614 $T=3400 2050 0 0 $X=3300 $Y=1800
X12 7 M1_PO_CDNS_7656736999615 $T=2470 2570 0 0 $X=2370 $Y=2450
X13 1 M2_M1_CDNS_7656736999616 $T=320 1490 0 0 $X=240 $Y=1240
X14 5 M2_M1_CDNS_7656736999616 $T=1540 2050 0 0 $X=1460 $Y=1800
X15 5 M2_M1_CDNS_7656736999616 $T=3400 2050 0 0 $X=3320 $Y=1800
X16 2 2 1 6 3 pmos1v_CDNS_765673699960 $T=420 3660 0 0 $X=0 $Y=3460
X17 1 2 5 4 3 pmos1v_CDNS_765673699960 $T=1350 3660 0 0 $X=930 $Y=3460
X18 6 2 7 4 3 pmos1v_CDNS_765673699960 $T=2370 3660 1 180 $X=1860 $Y=3460
X19 2 2 5 7 3 pmos1v_CDNS_765673699960 $T=3300 3660 1 180 $X=2790 $Y=3460
X20 3 3 1 6 nmos1v_CDNS_765673699961 $T=420 800 0 0 $X=0 $Y=240
X21 4 3 5 6 nmos1v_CDNS_765673699961 $T=1440 800 1 180 $X=930 $Y=240
X22 4 3 7 1 nmos1v_CDNS_765673699961 $T=2280 800 0 0 $X=1860 $Y=240
X23 3 3 5 7 nmos1v_CDNS_765673699961 $T=3300 800 1 180 $X=2790 $Y=240
.ends XOR

* +++++++++++++++++++++++++++++++++++++++++++++++++++++++++ *
* Sub cell: M3_M2_CDNS_7656736999617                        *
* +++++++++++++++++++++++++++++++++++++++++++++++++++++++++ *
.subckt M3_M2_CDNS_7656736999617 1
** N=1 EP=1 FDC=0
.ends M3_M2_CDNS_7656736999617

* +++++++++++++++++++++++++++++++++++++++++++++++++++++++++ *
* Sub cell: M2_M1_CDNS_7656736999618                        *
* +++++++++++++++++++++++++++++++++++++++++++++++++++++++++ *
.subckt M2_M1_CDNS_7656736999618 1
** N=1 EP=1 FDC=0
.ends M2_M1_CDNS_7656736999618

* +++++++++++++++++++++++++++++++++++++++++++++++++++++++++ *
* Sub cell: nmos1v_CDNS_765673699962                        *
* +++++++++++++++++++++++++++++++++++++++++++++++++++++++++ *
.subckt nmos1v_CDNS_765673699962 1 2 3
** N=3 EP=3 FDC=1
M0 2 3 1 1 g45n1svt L=4.5e-08 W=1.2e-07 AD=1.68e-14 AS=1.68e-14 PD=5.2e-07 PS=5.2e-07 fw=1.2e-07 sa=1.4e-07 sb=1.4e-07 sca=6.70537 scb=0.00332581 scc=2.28218e-05 $X=0 $Y=0 $dt=0
.ends nmos1v_CDNS_765673699962

* +++++++++++++++++++++++++++++++++++++++++++++++++++++++++ *
* Sub cell: pmos1v_CDNS_765673699963                        *
* +++++++++++++++++++++++++++++++++++++++++++++++++++++++++ *
.subckt pmos1v_CDNS_765673699963 1 2 3 4
*.DEVICECLIMB
** N=4 EP=4 FDC=0
.ends pmos1v_CDNS_765673699963

* +++++++++++++++++++++++++++++++++++++++++++++++++++++++++ *
* Sub cell: nmos1v_CDNS_765673699964                        *
* +++++++++++++++++++++++++++++++++++++++++++++++++++++++++ *
.subckt nmos1v_CDNS_765673699964 1 2 3
** N=3 EP=3 FDC=1
M0 3 2 1 1 g45n1svt L=4.5e-08 W=1.2e-07 AD=7.2e-15 AS=1.68e-14 PD=3.6e-07 PS=5.2e-07 fw=1.2e-07 sa=1.4e-07 sb=2.45e-07 sca=6.78406 scb=0.00345708 scc=2.49632e-05 $X=0 $Y=0 $dt=0
.ends nmos1v_CDNS_765673699964

* +++++++++++++++++++++++++++++++++++++++++++++++++++++++++ *
* Sub cell: pmos1v_CDNS_765673699965                        *
* +++++++++++++++++++++++++++++++++++++++++++++++++++++++++ *
.subckt pmos1v_CDNS_765673699965 1 2 3 4
*.DEVICECLIMB
** N=4 EP=4 FDC=0
.ends pmos1v_CDNS_765673699965

* +++++++++++++++++++++++++++++++++++++++++++++++++++++++++ *
* Sub cell: pmos1v_CDNS_765673699966                        *
* +++++++++++++++++++++++++++++++++++++++++++++++++++++++++ *
.subckt pmos1v_CDNS_765673699966 1 2 3 4
*.DEVICECLIMB
** N=4 EP=4 FDC=0
.ends pmos1v_CDNS_765673699966

* +++++++++++++++++++++++++++++++++++++++++++++++++++++++++ *
* Sub cell: nmos1v_CDNS_765673699967                        *
* +++++++++++++++++++++++++++++++++++++++++++++++++++++++++ *
.subckt nmos1v_CDNS_765673699967 1 2 3 4
** N=4 EP=4 FDC=1
M0 1 2 3 4 g45n1svt L=4.5e-08 W=1.2e-07 AD=1.68e-14 AS=7.2e-15 PD=5.2e-07 PS=3.6e-07 fw=1.2e-07 sa=2.45e-07 sb=1.4e-07 sca=6.78406 scb=0.00345708 scc=2.49632e-05 $X=0 $Y=0 $dt=0
.ends nmos1v_CDNS_765673699967

* +++++++++++++++++++++++++++++++++++++++++++++++++++++++++ *
* Sub cell: AND                                             *
* +++++++++++++++++++++++++++++++++++++++++++++++++++++++++ *
.subckt AND 1 2 3 4 5 6 7
*.DEVICECLIMB
** N=7 EP=7 FDC=3
X0 1 M2_M1_CDNS_7656736999611 $T=1510 -2070 0 0 $X=1430 $Y=-2200
X1 1 M2_M1_CDNS_7656736999611 $T=3010 -2070 0 0 $X=2930 $Y=-2200
X2 2 M1_PO_CDNS_7656736999615 $T=1870 -1670 0 0 $X=1770 $Y=-1790
X3 1 M1_PO_CDNS_7656736999615 $T=2510 -2070 0 0 $X=2410 $Y=-2190
X4 6 M1_PO_CDNS_7656736999615 $T=4500 -2020 0 0 $X=4400 $Y=-2140
X5 5 M3_M2_CDNS_7656736999617 $T=5170 -2000 0 0 $X=5090 $Y=-2250
X6 5 M2_M1_CDNS_7656736999618 $T=5170 -2000 0 0 $X=5090 $Y=-2250
X7 4 5 6 nmos1v_CDNS_765673699962 $T=4560 -2770 0 0 $X=3980 $Y=-2970
X8 3 5 6 4 pmos1v_CDNS_765673699963 $T=4560 -1510 0 0 $X=3880 $Y=-1710
X9 4 1 7 nmos1v_CDNS_765673699964 $T=2230 -2760 1 180 $X=1940 $Y=-2960
X10 3 2 6 4 pmos1v_CDNS_765673699965 $T=1930 -1320 0 0 $X=1250 $Y=-1520
X11 3 6 1 4 pmos1v_CDNS_765673699966 $T=2430 -1320 1 180 $X=1980 $Y=-1520
X12 6 2 7 4 nmos1v_CDNS_765673699967 $T=2020 -2760 1 180 $X=1510 $Y=-2960
.ends AND

* +++++++++++++++++++++++++++++++++++++++++++++++++++++++++ *
* Sub cell: M4_M3_CDNS_7656736999619                        *
* +++++++++++++++++++++++++++++++++++++++++++++++++++++++++ *
.subckt M4_M3_CDNS_7656736999619 1
** N=1 EP=1 FDC=0
.ends M4_M3_CDNS_7656736999619

* +++++++++++++++++++++++++++++++++++++++++++++++++++++++++ *
* Sub cell: M7_M6_CDNS_7656736999620                        *
* +++++++++++++++++++++++++++++++++++++++++++++++++++++++++ *
.subckt M7_M6_CDNS_7656736999620 1
** N=1 EP=1 FDC=0
.ends M7_M6_CDNS_7656736999620

* +++++++++++++++++++++++++++++++++++++++++++++++++++++++++ *
* Sub cell: M1_PO_CDNS_7656736999621                        *
* +++++++++++++++++++++++++++++++++++++++++++++++++++++++++ *
.subckt M1_PO_CDNS_7656736999621 1
** N=1 EP=1 FDC=0
.ends M1_PO_CDNS_7656736999621

* +++++++++++++++++++++++++++++++++++++++++++++++++++++++++ *
* Sub cell: M6_M5_CDNS_7656736999622                        *
* +++++++++++++++++++++++++++++++++++++++++++++++++++++++++ *
.subckt M6_M5_CDNS_7656736999622 1
** N=1 EP=1 FDC=0
.ends M6_M5_CDNS_7656736999622

* +++++++++++++++++++++++++++++++++++++++++++++++++++++++++ *
* Sub cell: M5_M4_CDNS_7656736999623                        *
* +++++++++++++++++++++++++++++++++++++++++++++++++++++++++ *
.subckt M5_M4_CDNS_7656736999623 1
** N=1 EP=1 FDC=0
.ends M5_M4_CDNS_7656736999623

* +++++++++++++++++++++++++++++++++++++++++++++++++++++++++ *
* Sub cell: M1_PO_CDNS_7656736999624                        *
* +++++++++++++++++++++++++++++++++++++++++++++++++++++++++ *
.subckt M1_PO_CDNS_7656736999624 1
** N=1 EP=1 FDC=0
.ends M1_PO_CDNS_7656736999624

* +++++++++++++++++++++++++++++++++++++++++++++++++++++++++ *
* Sub cell: M2_M1_CDNS_7656736999626                        *
* +++++++++++++++++++++++++++++++++++++++++++++++++++++++++ *
.subckt M2_M1_CDNS_7656736999626 1
** N=1 EP=1 FDC=0
.ends M2_M1_CDNS_7656736999626

* +++++++++++++++++++++++++++++++++++++++++++++++++++++++++ *
* Sub cell: M7_M6_CDNS_7656736999627                        *
* +++++++++++++++++++++++++++++++++++++++++++++++++++++++++ *
.subckt M7_M6_CDNS_7656736999627 1
** N=1 EP=1 FDC=0
.ends M7_M6_CDNS_7656736999627

* +++++++++++++++++++++++++++++++++++++++++++++++++++++++++ *
* Sub cell: M6_M5_CDNS_7656736999628                        *
* +++++++++++++++++++++++++++++++++++++++++++++++++++++++++ *
.subckt M6_M5_CDNS_7656736999628 1
** N=1 EP=1 FDC=0
.ends M6_M5_CDNS_7656736999628

* +++++++++++++++++++++++++++++++++++++++++++++++++++++++++ *
* Sub cell: M6_M5_CDNS_7656736999629                        *
* +++++++++++++++++++++++++++++++++++++++++++++++++++++++++ *
.subckt M6_M5_CDNS_7656736999629 1
** N=1 EP=1 FDC=0
.ends M6_M5_CDNS_7656736999629

* +++++++++++++++++++++++++++++++++++++++++++++++++++++++++ *
* Sub cell: M3_M2_CDNS_7656736999630                        *
* +++++++++++++++++++++++++++++++++++++++++++++++++++++++++ *
.subckt M3_M2_CDNS_7656736999630 1
** N=1 EP=1 FDC=0
.ends M3_M2_CDNS_7656736999630

* +++++++++++++++++++++++++++++++++++++++++++++++++++++++++ *
* Sub cell: M5_M4_CDNS_7656736999631                        *
* +++++++++++++++++++++++++++++++++++++++++++++++++++++++++ *
.subckt M5_M4_CDNS_7656736999631 1
** N=1 EP=1 FDC=0
.ends M5_M4_CDNS_7656736999631

* +++++++++++++++++++++++++++++++++++++++++++++++++++++++++ *
* Sub cell: pmos1v_CDNS_765673699968                        *
* +++++++++++++++++++++++++++++++++++++++++++++++++++++++++ *
.subckt pmos1v_CDNS_765673699968 1 2 3 4 5
** N=5 EP=5 FDC=1
M0 4 3 1 2 g45p1svt L=4.5e-08 W=1.2e-07 AD=1.68e-14 AS=1.68e-14 PD=5.2e-07 PS=5.2e-07 fw=1.2e-07 sa=1.4e-07 sb=1.4e-07 sca=3.73438 scb=0.00013556 scc=4.76679e-09 $X=0 $Y=0 $dt=1
.ends pmos1v_CDNS_765673699968

* +++++++++++++++++++++++++++++++++++++++++++++++++++++++++ *
* Sub cell: nmos1v_CDNS_765673699969                        *
* +++++++++++++++++++++++++++++++++++++++++++++++++++++++++ *
.subckt nmos1v_CDNS_765673699969 1 2 3 4
** N=4 EP=4 FDC=1
M0 4 3 1 2 g45n1svt L=4.5e-08 W=1.2e-07 AD=1.68e-14 AS=1.68e-14 PD=5.2e-07 PS=5.2e-07 fw=1.2e-07 sa=1.4e-07 sb=1.4e-07 sca=3.69959 scb=0.00013007 scc=4.39142e-09 $X=0 $Y=0 $dt=0
.ends nmos1v_CDNS_765673699969

* +++++++++++++++++++++++++++++++++++++++++++++++++++++++++ *
* Sub cell: 4bit_CLA_logic                                  *
* +++++++++++++++++++++++++++++++++++++++++++++++++++++++++ *
.subckt 4bit_CLA_logic 1 2 3 4 5 6 7 8 9 10
+ 11 12 13 14 15 16 17 18 19 20
+ 21 22 23 24 25 26 27 28 29 30
+ 31 32 33 34 35 36 37 38 39
*.DEVICECLIMB
** N=39 EP=39 FDC=54
X0 2 M3_M2_CDNS_765673699960 $T=610 4030 0 0 $X=530 $Y=3780
X1 1 M3_M2_CDNS_765673699960 $T=930 5440 0 0 $X=850 $Y=5190
X2 2 M3_M2_CDNS_765673699960 $T=2790 4030 0 0 $X=2710 $Y=3780
X3 7 M3_M2_CDNS_765673699960 $T=3110 3560 0 0 $X=3030 $Y=3310
X4 8 M3_M2_CDNS_765673699960 $T=4110 1490 0 0 $X=4030 $Y=1240
X5 1 M3_M2_CDNS_765673699960 $T=5580 5440 0 0 $X=5500 $Y=5190
X6 2 M3_M2_CDNS_765673699960 $T=7440 4030 0 0 $X=7360 $Y=3780
X7 10 M3_M2_CDNS_765673699960 $T=8700 3090 0 0 $X=8620 $Y=2840
X8 11 M3_M2_CDNS_765673699960 $T=9690 1490 0 0 $X=9610 $Y=1240
X9 9 M3_M2_CDNS_765673699960 $T=10230 6380 0 0 $X=10150 $Y=6130
X10 1 M3_M2_CDNS_765673699960 $T=12090 5440 0 0 $X=12010 $Y=5190
X11 2 M3_M2_CDNS_765673699960 $T=13950 4030 0 0 $X=13870 $Y=3780
X12 10 M3_M2_CDNS_765673699960 $T=15810 3090 0 0 $X=15730 $Y=2840
X13 13 M3_M2_CDNS_765673699960 $T=17130 1490 0 0 $X=17050 $Y=1240
X14 14 M3_M2_CDNS_765673699960 $T=17490 2630 0 0 $X=17410 $Y=2380
X15 9 M3_M2_CDNS_765673699960 $T=18600 6380 0 0 $X=18520 $Y=6130
X16 1 M3_M2_CDNS_765673699960 $T=20460 5440 0 0 $X=20380 $Y=5190
X17 2 M3_M2_CDNS_765673699960 $T=22320 4030 0 0 $X=22240 $Y=3780
X18 10 M3_M2_CDNS_765673699960 $T=24180 3090 0 0 $X=24100 $Y=2840
X19 15 M3_M2_CDNS_765673699960 $T=26430 1490 0 0 $X=26350 $Y=1240
X20 2 M4_M3_CDNS_765673699961 $T=610 4030 0 0 $X=530 $Y=3780
X21 1 M4_M3_CDNS_765673699961 $T=930 5440 0 0 $X=850 $Y=5190
X22 2 M4_M3_CDNS_765673699961 $T=2790 4030 0 0 $X=2710 $Y=3780
X23 1 M4_M3_CDNS_765673699961 $T=5580 5440 0 0 $X=5500 $Y=5190
X24 2 M4_M3_CDNS_765673699961 $T=7440 4030 0 0 $X=7360 $Y=3780
X25 10 M4_M3_CDNS_765673699961 $T=8700 3090 0 0 $X=8620 $Y=2840
X26 9 M4_M3_CDNS_765673699961 $T=10230 6380 0 0 $X=10150 $Y=6130
X27 1 M4_M3_CDNS_765673699961 $T=12090 5440 0 0 $X=12010 $Y=5190
X28 2 M4_M3_CDNS_765673699961 $T=13950 4030 0 0 $X=13870 $Y=3780
X29 10 M4_M3_CDNS_765673699961 $T=15810 3090 0 0 $X=15730 $Y=2840
X30 9 M4_M3_CDNS_765673699961 $T=18600 6380 0 0 $X=18520 $Y=6130
X31 1 M4_M3_CDNS_765673699961 $T=20460 5440 0 0 $X=20380 $Y=5190
X32 2 M4_M3_CDNS_765673699961 $T=22320 4030 0 0 $X=22240 $Y=3780
X33 10 M4_M3_CDNS_765673699961 $T=24180 3090 0 0 $X=24100 $Y=2840
X34 7 M4_M3_CDNS_765673699965 $T=3110 3560 0 0 $X=3030 $Y=3310
X35 8 M4_M3_CDNS_765673699965 $T=4110 1490 0 0 $X=4030 $Y=1240
X36 11 M4_M3_CDNS_765673699965 $T=9690 1490 0 0 $X=9610 $Y=1240
X37 13 M4_M3_CDNS_765673699965 $T=17130 1490 0 0 $X=17050 $Y=1240
X38 14 M4_M3_CDNS_765673699965 $T=17490 2630 0 0 $X=17410 $Y=2380
X39 15 M4_M3_CDNS_765673699965 $T=26430 1490 0 0 $X=26350 $Y=1240
X40 16 M3_M2_CDNS_765673699966 $T=3580 4500 0 0 $X=3360 $Y=4250
X41 17 M3_M2_CDNS_765673699966 $T=9160 4500 0 0 $X=8940 $Y=4250
X42 18 M3_M2_CDNS_765673699966 $T=16600 4500 0 0 $X=16380 $Y=4250
X43 19 M3_M2_CDNS_765673699966 $T=25900 4500 0 0 $X=25680 $Y=4250
X44 16 M4_M3_CDNS_765673699967 $T=3580 4500 0 0 $X=3360 $Y=4250
X45 17 M4_M3_CDNS_765673699967 $T=9160 4500 0 0 $X=8940 $Y=4250
X46 18 M4_M3_CDNS_765673699967 $T=16600 4500 0 0 $X=16380 $Y=4250
X47 19 M4_M3_CDNS_765673699967 $T=25900 4500 0 0 $X=25680 $Y=4250
X48 16 M5_M4_CDNS_765673699968 $T=3580 4500 0 0 $X=3360 $Y=4250
X49 17 M5_M4_CDNS_765673699968 $T=9160 4500 0 0 $X=8940 $Y=4250
X50 18 M5_M4_CDNS_765673699968 $T=16600 4500 0 0 $X=16380 $Y=4250
X51 19 M5_M4_CDNS_765673699968 $T=25900 4500 0 0 $X=25680 $Y=4250
X52 16 M2_M1_CDNS_7656736999610 $T=3580 4500 0 0 $X=3360 $Y=4250
X53 17 M2_M1_CDNS_7656736999610 $T=9160 4500 0 0 $X=8940 $Y=4250
X54 18 M2_M1_CDNS_7656736999610 $T=16600 4500 0 0 $X=16380 $Y=4250
X55 19 M2_M1_CDNS_7656736999610 $T=25900 4500 0 0 $X=25680 $Y=4250
X56 2 M2_M1_CDNS_7656736999612 $T=610 4030 0 0 $X=530 $Y=3780
X57 1 M2_M1_CDNS_7656736999612 $T=930 5440 0 0 $X=850 $Y=5190
X58 3 M2_M1_CDNS_7656736999612 $T=1860 4970 0 0 $X=1780 $Y=4720
X59 2 M2_M1_CDNS_7656736999612 $T=2790 4030 0 0 $X=2710 $Y=3780
X60 7 M2_M1_CDNS_7656736999612 $T=3110 3560 0 0 $X=3030 $Y=3310
X61 8 M2_M1_CDNS_7656736999612 $T=4110 1490 0 0 $X=4030 $Y=1240
X62 6 M2_M1_CDNS_7656736999612 $T=4650 5910 0 0 $X=4570 $Y=5660
X63 1 M2_M1_CDNS_7656736999612 $T=5580 5440 0 0 $X=5500 $Y=5190
X64 3 M2_M1_CDNS_7656736999612 $T=6510 4970 0 0 $X=6430 $Y=4720
X65 2 M2_M1_CDNS_7656736999612 $T=7440 4030 0 0 $X=7360 $Y=3780
X66 7 M2_M1_CDNS_7656736999612 $T=8370 3560 0 0 $X=8290 $Y=3310
X67 10 M2_M1_CDNS_7656736999612 $T=8700 3090 0 0 $X=8620 $Y=2840
X68 11 M2_M1_CDNS_7656736999612 $T=9690 1490 0 0 $X=9610 $Y=1240
X69 9 M2_M1_CDNS_7656736999612 $T=10230 6380 0 0 $X=10150 $Y=6130
X70 6 M2_M1_CDNS_7656736999612 $T=11160 5910 0 0 $X=11080 $Y=5660
X71 1 M2_M1_CDNS_7656736999612 $T=12090 5440 0 0 $X=12010 $Y=5190
X72 3 M2_M1_CDNS_7656736999612 $T=13020 4970 0 0 $X=12940 $Y=4720
X73 2 M2_M1_CDNS_7656736999612 $T=13950 4030 0 0 $X=13870 $Y=3780
X74 7 M2_M1_CDNS_7656736999612 $T=14880 3560 0 0 $X=14800 $Y=3310
X75 10 M2_M1_CDNS_7656736999612 $T=15810 3090 0 0 $X=15730 $Y=2840
X76 13 M2_M1_CDNS_7656736999612 $T=17130 1490 0 0 $X=17050 $Y=1240
X77 14 M2_M1_CDNS_7656736999612 $T=17490 2630 0 0 $X=17410 $Y=2380
X78 12 M2_M1_CDNS_7656736999612 $T=17670 6850 0 0 $X=17590 $Y=6600
X79 9 M2_M1_CDNS_7656736999612 $T=18600 6380 0 0 $X=18520 $Y=6130
X80 6 M2_M1_CDNS_7656736999612 $T=19530 5910 0 0 $X=19450 $Y=5660
X81 1 M2_M1_CDNS_7656736999612 $T=20460 5440 0 0 $X=20380 $Y=5190
X82 3 M2_M1_CDNS_7656736999612 $T=21390 4970 0 0 $X=21310 $Y=4720
X83 2 M2_M1_CDNS_7656736999612 $T=22320 4030 0 0 $X=22240 $Y=3780
X84 7 M2_M1_CDNS_7656736999612 $T=23250 3560 0 0 $X=23170 $Y=3310
X85 10 M2_M1_CDNS_7656736999612 $T=24180 3090 0 0 $X=24100 $Y=2840
X86 14 M2_M1_CDNS_7656736999612 $T=25110 2620 0 0 $X=25030 $Y=2370
X87 15 M2_M1_CDNS_7656736999612 $T=26430 1490 0 0 $X=26350 $Y=1240
X88 4 4 2 20 5 pmos1v_CDNS_765673699960 $T=2980 8370 1 180 $X=2470 $Y=8170
X89 4 4 16 8 5 pmos1v_CDNS_765673699960 $T=3820 8370 0 0 $X=3400 $Y=8170
X90 4 4 6 17 5 pmos1v_CDNS_765673699960 $T=4750 8370 0 0 $X=4330 $Y=8170
X91 21 4 3 17 5 pmos1v_CDNS_765673699960 $T=6700 8370 1 180 $X=6190 $Y=8170
X92 22 4 2 21 5 pmos1v_CDNS_765673699960 $T=7630 8370 1 180 $X=7120 $Y=8170
X93 4 4 7 22 5 pmos1v_CDNS_765673699960 $T=8560 8370 1 180 $X=8050 $Y=8170
X94 4 4 17 11 5 pmos1v_CDNS_765673699960 $T=9400 8370 0 0 $X=8980 $Y=8170
X95 4 4 9 18 5 pmos1v_CDNS_765673699960 $T=10330 8370 0 0 $X=9910 $Y=8170
X96 23 4 6 18 5 pmos1v_CDNS_765673699960 $T=11350 8370 1 180 $X=10840 $Y=8170
X97 24 4 1 18 5 pmos1v_CDNS_765673699960 $T=12280 8370 1 180 $X=11770 $Y=8170
X98 25 4 3 18 5 pmos1v_CDNS_765673699960 $T=13210 8370 1 180 $X=12700 $Y=8170
X99 24 4 2 25 5 pmos1v_CDNS_765673699960 $T=14140 8370 1 180 $X=13630 $Y=8170
X100 23 4 7 24 5 pmos1v_CDNS_765673699960 $T=15070 8370 1 180 $X=14560 $Y=8170
X101 4 4 10 23 5 pmos1v_CDNS_765673699960 $T=16000 8370 1 180 $X=15490 $Y=8170
X102 4 4 12 19 5 pmos1v_CDNS_765673699960 $T=17770 8370 0 0 $X=17350 $Y=8170
X103 26 4 6 19 5 pmos1v_CDNS_765673699960 $T=19720 8370 1 180 $X=19210 $Y=8170
X104 27 4 1 19 5 pmos1v_CDNS_765673699960 $T=20650 8370 1 180 $X=20140 $Y=8170
X105 27 4 2 28 5 pmos1v_CDNS_765673699960 $T=22510 8370 1 180 $X=22000 $Y=8170
X106 26 4 7 27 5 pmos1v_CDNS_765673699960 $T=23440 8370 1 180 $X=22930 $Y=8170
X107 4 4 14 29 5 pmos1v_CDNS_765673699960 $T=25300 8370 1 180 $X=24790 $Y=8170
X108 4 4 19 15 5 pmos1v_CDNS_765673699960 $T=26140 8370 0 0 $X=25720 $Y=8170
X109 5 5 1 30 nmos1v_CDNS_765673699961 $T=1030 800 0 0 $X=610 $Y=240
X110 30 5 3 16 nmos1v_CDNS_765673699961 $T=1960 800 0 0 $X=1540 $Y=240
X111 5 5 6 31 nmos1v_CDNS_765673699961 $T=4750 800 0 0 $X=4330 $Y=240
X112 31 5 2 17 nmos1v_CDNS_765673699961 $T=7540 800 0 0 $X=7120 $Y=240
X113 5 5 7 17 nmos1v_CDNS_765673699961 $T=8560 800 1 180 $X=8050 $Y=240
X114 5 5 17 11 nmos1v_CDNS_765673699961 $T=9400 800 0 0 $X=8980 $Y=240
X115 32 5 1 33 nmos1v_CDNS_765673699961 $T=12190 800 0 0 $X=11770 $Y=240
X116 33 5 3 18 nmos1v_CDNS_765673699961 $T=13120 800 0 0 $X=12700 $Y=240
X117 34 5 7 18 nmos1v_CDNS_765673699961 $T=14980 800 0 0 $X=14560 $Y=240
X118 5 5 10 18 nmos1v_CDNS_765673699961 $T=16000 800 1 180 $X=15490 $Y=240
X119 5 5 18 13 nmos1v_CDNS_765673699961 $T=16840 800 0 0 $X=16420 $Y=240
X120 35 5 9 36 nmos1v_CDNS_765673699961 $T=18700 800 0 0 $X=18280 $Y=240
X121 36 5 7 19 nmos1v_CDNS_765673699961 $T=23350 800 0 0 $X=22930 $Y=240
X122 5 5 19 15 nmos1v_CDNS_765673699961 $T=26140 800 0 0 $X=25720 $Y=240
X123 3 M3_M2_CDNS_7656736999617 $T=250 4970 0 90 $X=0 $Y=4890
X124 3 M3_M2_CDNS_7656736999617 $T=1860 4970 0 0 $X=1780 $Y=4720
X125 6 M3_M2_CDNS_7656736999617 $T=4650 5910 0 0 $X=4570 $Y=5660
X126 3 M3_M2_CDNS_7656736999617 $T=6510 4970 0 0 $X=6430 $Y=4720
X127 7 M3_M2_CDNS_7656736999617 $T=8370 3560 0 0 $X=8290 $Y=3310
X128 6 M3_M2_CDNS_7656736999617 $T=11160 5910 0 0 $X=11080 $Y=5660
X129 3 M3_M2_CDNS_7656736999617 $T=13020 4970 0 0 $X=12940 $Y=4720
X130 7 M3_M2_CDNS_7656736999617 $T=14880 3560 0 0 $X=14800 $Y=3310
X131 12 M3_M2_CDNS_7656736999617 $T=17670 6850 0 0 $X=17590 $Y=6600
X132 6 M3_M2_CDNS_7656736999617 $T=19530 5910 0 0 $X=19450 $Y=5660
X133 3 M3_M2_CDNS_7656736999617 $T=21390 4970 0 0 $X=21310 $Y=4720
X134 7 M3_M2_CDNS_7656736999617 $T=23250 3560 0 0 $X=23170 $Y=3310
X135 14 M3_M2_CDNS_7656736999617 $T=25110 2620 0 0 $X=25030 $Y=2370
X136 3 M2_M1_CDNS_7656736999618 $T=250 4970 0 90 $X=0 $Y=4890
X137 1 M4_M3_CDNS_7656736999619 $T=80 5580 0 0 $X=0 $Y=5190
X138 16 M4_M3_CDNS_7656736999619 $T=1540 7840 0 0 $X=1460 $Y=7450
X139 6 M4_M3_CDNS_7656736999619 $T=2130 6050 0 0 $X=2050 $Y=5660
X140 16 M4_M3_CDNS_7656736999619 $T=2470 1570 0 0 $X=2390 $Y=1180
X141 17 M4_M3_CDNS_7656736999619 $T=5260 7840 0 0 $X=5180 $Y=7450
X142 17 M4_M3_CDNS_7656736999619 $T=6450 7840 0 0 $X=6370 $Y=7450
X143 17 M4_M3_CDNS_7656736999619 $T=6860 1570 0 0 $X=6780 $Y=1180
X144 9 M4_M3_CDNS_7656736999619 $T=7710 6520 0 0 $X=7630 $Y=6130
X145 17 M4_M3_CDNS_7656736999619 $T=8050 1570 0 0 $X=7970 $Y=1180
X146 18 M4_M3_CDNS_7656736999619 $T=10840 7840 0 0 $X=10760 $Y=7450
X147 18 M4_M3_CDNS_7656736999619 $T=12030 7840 0 0 $X=11950 $Y=7450
X148 18 M4_M3_CDNS_7656736999619 $T=12960 7840 0 0 $X=12880 $Y=7450
X149 18 M4_M3_CDNS_7656736999619 $T=13370 1570 0 0 $X=13290 $Y=1180
X150 18 M4_M3_CDNS_7656736999619 $T=14300 1570 0 0 $X=14220 $Y=1180
X151 18 M4_M3_CDNS_7656736999619 $T=15490 1570 0 0 $X=15410 $Y=1180
X152 12 M4_M3_CDNS_7656736999619 $T=16080 6990 0 0 $X=16000 $Y=6600
X153 19 M4_M3_CDNS_7656736999619 $T=18280 7840 0 0 $X=18200 $Y=7450
X154 19 M4_M3_CDNS_7656736999619 $T=19470 7840 0 0 $X=19390 $Y=7450
X155 19 M4_M3_CDNS_7656736999619 $T=20400 7840 0 0 $X=20320 $Y=7450
X156 19 M4_M3_CDNS_7656736999619 $T=21330 7840 0 0 $X=21250 $Y=7450
X157 19 M4_M3_CDNS_7656736999619 $T=21740 1570 0 0 $X=21660 $Y=1180
X158 19 M4_M3_CDNS_7656736999619 $T=22670 1570 0 0 $X=22590 $Y=1180
X159 19 M4_M3_CDNS_7656736999619 $T=23600 1570 0 0 $X=23520 $Y=1180
X160 19 M4_M3_CDNS_7656736999619 $T=24790 1570 0 0 $X=24710 $Y=1180
X161 16 M7_M6_CDNS_7656736999620 $T=1540 7840 0 0 $X=1460 $Y=7450
X162 16 M7_M6_CDNS_7656736999620 $T=2470 1570 0 0 $X=2390 $Y=1180
X163 17 M7_M6_CDNS_7656736999620 $T=5260 7840 0 0 $X=5180 $Y=7450
X164 17 M7_M6_CDNS_7656736999620 $T=6450 7840 0 0 $X=6370 $Y=7450
X165 17 M7_M6_CDNS_7656736999620 $T=6860 1570 0 0 $X=6780 $Y=1180
X166 17 M7_M6_CDNS_7656736999620 $T=8050 1570 0 0 $X=7970 $Y=1180
X167 18 M7_M6_CDNS_7656736999620 $T=10840 7840 0 0 $X=10760 $Y=7450
X168 18 M7_M6_CDNS_7656736999620 $T=12030 7840 0 0 $X=11950 $Y=7450
X169 18 M7_M6_CDNS_7656736999620 $T=12960 7840 0 0 $X=12880 $Y=7450
X170 18 M7_M6_CDNS_7656736999620 $T=13370 1570 0 0 $X=13290 $Y=1180
X171 18 M7_M6_CDNS_7656736999620 $T=14300 1570 0 0 $X=14220 $Y=1180
X172 18 M7_M6_CDNS_7656736999620 $T=15490 1570 0 0 $X=15410 $Y=1180
X173 19 M7_M6_CDNS_7656736999620 $T=18280 7840 0 0 $X=18200 $Y=7450
X174 19 M7_M6_CDNS_7656736999620 $T=19470 7840 0 0 $X=19390 $Y=7450
X175 19 M7_M6_CDNS_7656736999620 $T=20400 7840 0 0 $X=20320 $Y=7450
X176 19 M7_M6_CDNS_7656736999620 $T=21330 7840 0 0 $X=21250 $Y=7450
X177 19 M7_M6_CDNS_7656736999620 $T=21740 1570 0 0 $X=21660 $Y=1180
X178 19 M7_M6_CDNS_7656736999620 $T=22670 1570 0 0 $X=22590 $Y=1180
X179 19 M7_M6_CDNS_7656736999620 $T=23600 1570 0 0 $X=23520 $Y=1180
X180 19 M7_M6_CDNS_7656736999620 $T=24790 1570 0 0 $X=24710 $Y=1180
X181 16 M1_PO_CDNS_7656736999621 $T=3580 4500 0 0 $X=3340 $Y=4250
X182 17 M1_PO_CDNS_7656736999621 $T=9160 4500 0 0 $X=8920 $Y=4250
X183 18 M1_PO_CDNS_7656736999621 $T=16600 4500 0 0 $X=16360 $Y=4250
X184 16 M6_M5_CDNS_7656736999622 $T=3580 4500 0 0 $X=3360 $Y=4250
X185 17 M6_M5_CDNS_7656736999622 $T=9160 4500 0 0 $X=8940 $Y=4250
X186 18 M6_M5_CDNS_7656736999622 $T=16600 4500 0 0 $X=16380 $Y=4250
X187 19 M6_M5_CDNS_7656736999622 $T=25900 4500 0 0 $X=25680 $Y=4250
X188 2 M5_M4_CDNS_7656736999623 $T=610 4030 0 0 $X=530 $Y=3780
X189 1 M5_M4_CDNS_7656736999623 $T=930 5440 0 0 $X=850 $Y=5190
X190 2 M5_M4_CDNS_7656736999623 $T=2790 4030 0 0 $X=2710 $Y=3780
X191 1 M5_M4_CDNS_7656736999623 $T=5580 5440 0 0 $X=5500 $Y=5190
X192 2 M5_M4_CDNS_7656736999623 $T=7440 4030 0 0 $X=7360 $Y=3780
X193 10 M5_M4_CDNS_7656736999623 $T=8700 3090 0 0 $X=8620 $Y=2840
X194 9 M5_M4_CDNS_7656736999623 $T=10230 6380 0 0 $X=10150 $Y=6130
X195 1 M5_M4_CDNS_7656736999623 $T=12090 5440 0 0 $X=12010 $Y=5190
X196 2 M5_M4_CDNS_7656736999623 $T=13950 4030 0 0 $X=13870 $Y=3780
X197 10 M5_M4_CDNS_7656736999623 $T=15810 3090 0 0 $X=15730 $Y=2840
X198 9 M5_M4_CDNS_7656736999623 $T=18600 6380 0 0 $X=18520 $Y=6130
X199 1 M5_M4_CDNS_7656736999623 $T=20460 5440 0 0 $X=20380 $Y=5190
X200 2 M5_M4_CDNS_7656736999623 $T=22320 4030 0 0 $X=22240 $Y=3780
X201 10 M5_M4_CDNS_7656736999623 $T=24180 3090 0 0 $X=24100 $Y=2840
X202 1 M1_PO_CDNS_7656736999624 $T=930 5440 0 0 $X=830 $Y=5190
X203 3 M1_PO_CDNS_7656736999624 $T=1860 4970 0 0 $X=1760 $Y=4720
X204 2 M1_PO_CDNS_7656736999624 $T=2790 4030 0 0 $X=2690 $Y=3780
X205 6 M1_PO_CDNS_7656736999624 $T=4650 5910 0 0 $X=4550 $Y=5660
X206 1 M1_PO_CDNS_7656736999624 $T=5580 5440 0 0 $X=5480 $Y=5190
X207 3 M1_PO_CDNS_7656736999624 $T=6510 4970 0 0 $X=6410 $Y=4720
X208 2 M1_PO_CDNS_7656736999624 $T=7440 4030 0 0 $X=7340 $Y=3780