* +++++++++++++++++++++++++++++++++++++++++++++++++++++++++ *
* CDL Netlist:                                              *
*                                                           *
* Cell Name  : WallaceFinalAdder                            *
* Netlisted  : Thu Dec 11 09:02:36 2025                     *
* PVS Version: 23.11-s036 Wed Jan 17 18:11:41 PST 2024      *
* +++++++++++++++++++++++++++++++++++++++++++++++++++++++++ *
*.LDD
*.DEVTMPLT 0 MN(g45n1svt) _nmos1v ndiff_conn(D) poly_conn(G) ndiff_conn(S) psubstrate(B)
*.DEVTMPLT 1 MP(g45p1svt) _pmos1v pdiff_conn(D) poly_conn(G) pdiff_conn(S) nwell_conn(B)

* +++++++++++++++++++++++++++++++++++++++++++++++++++++++++ *
* Sub cell: M4_M3_CDNS_765461750680                         *
* +++++++++++++++++++++++++++++++++++++++++++++++++++++++++ *
.subckt M4_M3_CDNS_765461750680 1
** N=1 EP=1 FDC=0
.ends M4_M3_CDNS_765461750680

* +++++++++++++++++++++++++++++++++++++++++++++++++++++++++ *
* Sub cell: M6_M5_CDNS_765461750681                         *
* +++++++++++++++++++++++++++++++++++++++++++++++++++++++++ *
.subckt M6_M5_CDNS_765461750681 1
** N=1 EP=1 FDC=0
.ends M6_M5_CDNS_765461750681

* +++++++++++++++++++++++++++++++++++++++++++++++++++++++++ *
* Sub cell: M5_M4_CDNS_765461750682                         *
* +++++++++++++++++++++++++++++++++++++++++++++++++++++++++ *
.subckt M5_M4_CDNS_765461750682 1
** N=1 EP=1 FDC=0
.ends M5_M4_CDNS_765461750682

* +++++++++++++++++++++++++++++++++++++++++++++++++++++++++ *
* Sub cell: M2_M1_CDNS_765461750683                         *
* +++++++++++++++++++++++++++++++++++++++++++++++++++++++++ *
.subckt M2_M1_CDNS_765461750683 1
** N=1 EP=1 FDC=0
.ends M2_M1_CDNS_765461750683

* +++++++++++++++++++++++++++++++++++++++++++++++++++++++++ *
* Sub cell: M5_M4_CDNS_765461750684                         *
* +++++++++++++++++++++++++++++++++++++++++++++++++++++++++ *
.subckt M5_M4_CDNS_765461750684 1
** N=1 EP=1 FDC=0
.ends M5_M4_CDNS_765461750684

* +++++++++++++++++++++++++++++++++++++++++++++++++++++++++ *
* Sub cell: M3_M2_CDNS_765461750685                         *
* +++++++++++++++++++++++++++++++++++++++++++++++++++++++++ *
.subckt M3_M2_CDNS_765461750685 1
** N=1 EP=1 FDC=0
.ends M3_M2_CDNS_765461750685

* +++++++++++++++++++++++++++++++++++++++++++++++++++++++++ *
* Sub cell: M4_M3_CDNS_765461750686                         *
* +++++++++++++++++++++++++++++++++++++++++++++++++++++++++ *
.subckt M4_M3_CDNS_765461750686 1
** N=1 EP=1 FDC=0
.ends M4_M3_CDNS_765461750686

* +++++++++++++++++++++++++++++++++++++++++++++++++++++++++ *
* Sub cell: M3_M2_CDNS_765461750687                         *
* +++++++++++++++++++++++++++++++++++++++++++++++++++++++++ *
.subckt M3_M2_CDNS_765461750687 1
** N=1 EP=1 FDC=0
.ends M3_M2_CDNS_765461750687

* +++++++++++++++++++++++++++++++++++++++++++++++++++++++++ *
* Sub cell: M2_M1_CDNS_765461750688                         *
* +++++++++++++++++++++++++++++++++++++++++++++++++++++++++ *
.subckt M2_M1_CDNS_765461750688 1
** N=1 EP=1 FDC=0
.ends M2_M1_CDNS_765461750688

* +++++++++++++++++++++++++++++++++++++++++++++++++++++++++ *
* Sub cell: M6_M5_CDNS_765461750689                         *
* +++++++++++++++++++++++++++++++++++++++++++++++++++++++++ *
.subckt M6_M5_CDNS_765461750689 1
** N=1 EP=1 FDC=0
.ends M6_M5_CDNS_765461750689

* +++++++++++++++++++++++++++++++++++++++++++++++++++++++++ *
* Sub cell: M3_M2_CDNS_7654617506810                        *
* +++++++++++++++++++++++++++++++++++++++++++++++++++++++++ *
.subckt M3_M2_CDNS_7654617506810 1
** N=1 EP=1 FDC=0
.ends M3_M2_CDNS_7654617506810

* +++++++++++++++++++++++++++++++++++++++++++++++++++++++++ *
* Sub cell: M4_M3_CDNS_7654617506811                        *
* +++++++++++++++++++++++++++++++++++++++++++++++++++++++++ *
.subckt M4_M3_CDNS_7654617506811 1
** N=1 EP=1 FDC=0
.ends M4_M3_CDNS_7654617506811

* +++++++++++++++++++++++++++++++++++++++++++++++++++++++++ *
* Sub cell: M1_PO_CDNS_7654617506812                        *
* +++++++++++++++++++++++++++++++++++++++++++++++++++++++++ *
.subckt M1_PO_CDNS_7654617506812 1
** N=1 EP=1 FDC=0
.ends M1_PO_CDNS_7654617506812

* +++++++++++++++++++++++++++++++++++++++++++++++++++++++++ *
* Sub cell: M3_M2_CDNS_7654617506813                        *
* +++++++++++++++++++++++++++++++++++++++++++++++++++++++++ *
.subckt M3_M2_CDNS_7654617506813 1
** N=1 EP=1 FDC=0
.ends M3_M2_CDNS_7654617506813

* +++++++++++++++++++++++++++++++++++++++++++++++++++++++++ *
* Sub cell: M2_M1_CDNS_7654617506814                        *
* +++++++++++++++++++++++++++++++++++++++++++++++++++++++++ *
.subckt M2_M1_CDNS_7654617506814 1
** N=1 EP=1 FDC=0
.ends M2_M1_CDNS_7654617506814

* +++++++++++++++++++++++++++++++++++++++++++++++++++++++++ *
* Sub cell: nmos1v_CDNS_765461750680                        *
* +++++++++++++++++++++++++++++++++++++++++++++++++++++++++ *
.subckt nmos1v_CDNS_765461750680 1 2 3
** N=3 EP=3 FDC=1
M0 2 3 1 1 g45n1svt L=4.5e-08 W=1.2e-07 AD=1.68e-14 AS=1.68e-14 PD=5.2e-07 PS=5.2e-07 fw=1.2e-07 sa=1.4e-07 sb=1.4e-07 sca=6.70537 scb=0.00332581 scc=2.28218e-05 $X=0 $Y=0 $dt=0
.ends nmos1v_CDNS_765461750680

* +++++++++++++++++++++++++++++++++++++++++++++++++++++++++ *
* Sub cell: pmos1v_CDNS_765461750681                        *
* +++++++++++++++++++++++++++++++++++++++++++++++++++++++++ *
.subckt pmos1v_CDNS_765461750681 1 2 3 4
** N=4 EP=4 FDC=1
M0 2 3 1 1 g45p1svt L=4.5e-08 W=2.4e-07 AD=3.36e-14 AS=3.36e-14 PD=7.6e-07 PS=7.6e-07 fw=2.4e-07 sa=1.4e-07 sb=1.4e-07 sca=93.2539 scb=0.0709721 scc=0.0112581 $X=0 $Y=0 $dt=1
.ends pmos1v_CDNS_765461750681

* +++++++++++++++++++++++++++++++++++++++++++++++++++++++++ *
* Sub cell: nmos1v_CDNS_765461750682                        *
* +++++++++++++++++++++++++++++++++++++++++++++++++++++++++ *
.subckt nmos1v_CDNS_765461750682 1 2 3
** N=3 EP=3 FDC=1
M0 3 2 1 1 g45n1svt L=4.5e-08 W=1.2e-07 AD=7.2e-15 AS=1.68e-14 PD=3.6e-07 PS=5.2e-07 fw=1.2e-07 sa=1.4e-07 sb=2.45e-07 sca=6.78406 scb=0.00345708 scc=2.49632e-05 $X=0 $Y=0 $dt=0
.ends nmos1v_CDNS_765461750682

* +++++++++++++++++++++++++++++++++++++++++++++++++++++++++ *
* Sub cell: pmos1v_CDNS_765461750683                        *
* +++++++++++++++++++++++++++++++++++++++++++++++++++++++++ *
.subckt pmos1v_CDNS_765461750683 1 2 3 4
*.DEVICECLIMB
** N=4 EP=4 FDC=0
.ends pmos1v_CDNS_765461750683

* +++++++++++++++++++++++++++++++++++++++++++++++++++++++++ *
* Sub cell: pmos1v_CDNS_765461750684                        *
* +++++++++++++++++++++++++++++++++++++++++++++++++++++++++ *
.subckt pmos1v_CDNS_765461750684 1 2 3 4
*.DEVICECLIMB
** N=4 EP=4 FDC=0
.ends pmos1v_CDNS_765461750684

* +++++++++++++++++++++++++++++++++++++++++++++++++++++++++ *
* Sub cell: nmos1v_CDNS_765461750685                        *
* +++++++++++++++++++++++++++++++++++++++++++++++++++++++++ *
.subckt nmos1v_CDNS_765461750685 1 2 3 4
** N=4 EP=4 FDC=1
M0 1 2 3 4 g45n1svt L=4.5e-08 W=1.2e-07 AD=1.68e-14 AS=7.2e-15 PD=5.2e-07 PS=3.6e-07 fw=1.2e-07 sa=2.45e-07 sb=1.4e-07 sca=6.78406 scb=0.00345708 scc=2.49632e-05 $X=0 $Y=0 $dt=0
.ends nmos1v_CDNS_765461750685

* +++++++++++++++++++++++++++++++++++++++++++++++++++++++++ *
* Sub cell: AND                                             *
* +++++++++++++++++++++++++++++++++++++++++++++++++++++++++ *
.subckt AND 1 2 3 4 5 6 7
*.DEVICECLIMB
** N=7 EP=7 FDC=4
X0 1 M2_M1_CDNS_765461750683 $T=1510 -2070 0 0 $X=1430 $Y=-2200
X1 1 M2_M1_CDNS_765461750683 $T=3010 -2070 0 0 $X=2930 $Y=-2200
X2 2 M1_PO_CDNS_7654617506812 $T=1870 -1670 0 0 $X=1770 $Y=-1790
X3 1 M1_PO_CDNS_7654617506812 $T=2510 -2070 0 0 $X=2410 $Y=-2190
X4 6 M1_PO_CDNS_7654617506812 $T=4500 -2020 0 0 $X=4400 $Y=-2140
X5 5 M3_M2_CDNS_7654617506813 $T=5170 -2000 0 0 $X=5090 $Y=-2250
X6 5 M2_M1_CDNS_7654617506814 $T=5170 -2000 0 0 $X=5090 $Y=-2250
X7 4 5 6 nmos1v_CDNS_765461750680 $T=4560 -2770 0 0 $X=3980 $Y=-2970
X8 3 5 6 4 pmos1v_CDNS_765461750681 $T=4560 -1510 0 0 $X=3880 $Y=-1710
X9 4 1 7 nmos1v_CDNS_765461750682 $T=2230 -2760 1 180 $X=1940 $Y=-2960
X10 3 2 6 4 pmos1v_CDNS_765461750683 $T=1930 -1320 0 0 $X=1250 $Y=-1520
X11 3 6 1 4 pmos1v_CDNS_765461750684 $T=2430 -1320 1 180 $X=1980 $Y=-1520
X12 6 2 7 4 nmos1v_CDNS_765461750685 $T=2020 -2760 1 180 $X=1510 $Y=-2960
.ends AND

* +++++++++++++++++++++++++++++++++++++++++++++++++++++++++ *
* Sub cell: M1_PO_CDNS_7654617506815                        *
* +++++++++++++++++++++++++++++++++++++++++++++++++++++++++ *
.subckt M1_PO_CDNS_7654617506815 1
** N=1 EP=1 FDC=0
.ends M1_PO_CDNS_7654617506815

* +++++++++++++++++++++++++++++++++++++++++++++++++++++++++ *
* Sub cell: M2_M1_CDNS_7654617506816                        *
* +++++++++++++++++++++++++++++++++++++++++++++++++++++++++ *
.subckt M2_M1_CDNS_7654617506816 1
** N=1 EP=1 FDC=0
.ends M2_M1_CDNS_7654617506816

* +++++++++++++++++++++++++++++++++++++++++++++++++++++++++ *
* Sub cell: pmos1v_CDNS_765461750686                        *
* +++++++++++++++++++++++++++++++++++++++++++++++++++++++++ *
.subckt pmos1v_CDNS_765461750686 1 2 3 4 5
*.DEVICECLIMB
** N=5 EP=5 FDC=0
.ends pmos1v_CDNS_765461750686

* +++++++++++++++++++++++++++++++++++++++++++++++++++++++++ *
* Sub cell: nmos1v_CDNS_765461750687                        *
* +++++++++++++++++++++++++++++++++++++++++++++++++++++++++ *
.subckt nmos1v_CDNS_765461750687 1 2 3 4
** N=4 EP=4 FDC=1
M0 4 3 1 2 g45n1svt L=4.5e-08 W=1.2e-07 AD=1.68e-14 AS=1.68e-14 PD=5.2e-07 PS=5.2e-07 fw=1.2e-07 sa=1.4e-07 sb=1.4e-07 sca=3.69959 scb=0.00013007 scc=4.39142e-09 $X=0 $Y=0 $dt=0
.ends nmos1v_CDNS_765461750687

* +++++++++++++++++++++++++++++++++++++++++++++++++++++++++ *
* Sub cell: XOR                                             *
* +++++++++++++++++++++++++++++++++++++++++++++++++++++++++ *
.subckt XOR 1 2 3 4 5 6 7
*.DEVICECLIMB
** N=7 EP=7 FDC=4
X0 6 M2_M1_CDNS_765461750683 $T=690 3330 0 0 $X=610 $Y=3200
X1 1 M2_M1_CDNS_765461750683 $T=1190 1490 0 0 $X=1110 $Y=1360
X2 1 M2_M1_CDNS_765461750683 $T=2520 1490 0 0 $X=2440 $Y=1360
X3 6 M2_M1_CDNS_765461750683 $T=2550 3330 0 0 $X=2470 $Y=3200
X4 4 M5_M4_CDNS_765461750684 $T=1850 2810 0 90 $X=1600 $Y=2590
X5 4 M4_M3_CDNS_765461750686 $T=1850 2810 0 90 $X=1600 $Y=2590
X6 4 M3_M2_CDNS_765461750687 $T=1850 2810 0 90 $X=1600 $Y=2590
X7 4 M2_M1_CDNS_765461750688 $T=1850 2810 0 90 $X=1600 $Y=2590
X8 4 M6_M5_CDNS_765461750689 $T=1850 2810 0 90 $X=1600 $Y=2590
X9 7 M1_PO_CDNS_7654617506812 $T=2470 2570 0 0 $X=2370 $Y=2450
X10 1 M1_PO_CDNS_7654617506815 $T=320 1490 0 0 $X=220 $Y=1240
X11 5 M1_PO_CDNS_7654617506815 $T=1540 2050 0 0 $X=1440 $Y=1800
X12 5 M1_PO_CDNS_7654617506815 $T=3400 2050 0 0 $X=3300 $Y=1800
X13 1 M2_M1_CDNS_7654617506816 $T=320 1490 0 0 $X=240 $Y=1240
X14 5 M2_M1_CDNS_7654617506816 $T=1540 2050 0 0 $X=1460 $Y=1800
X15 5 M2_M1_CDNS_7654617506816 $T=3400 2050 0 0 $X=3320 $Y=1800
X16 2 2 1 6 3 pmos1v_CDNS_765461750686 $T=420 3660 0 0 $X=0 $Y=3460
X17 1 2 5 4 3 pmos1v_CDNS_765461750686 $T=1350 3660 0 0 $X=930 $Y=3460
X18 6 2 7 4 3 pmos1v_CDNS_765461750686 $T=2370 3660 1 180 $X=1860 $Y=3460
X19 2 2 5 7 3 pmos1v_CDNS_765461750686 $T=3300 3660 1 180 $X=2790 $Y=3460
X20 3 3 1 6 nmos1v_CDNS_765461750687 $T=420 800 0 0 $X=0 $Y=240
X21 4 3 5 6 nmos1v_CDNS_765461750687 $T=1440 800 1 180 $X=930 $Y=240
X22 4 3 7 1 nmos1v_CDNS_765461750687 $T=2280 800 0 0 $X=1860 $Y=240
X23 3 3 5 7 nmos1v_CDNS_765461750687 $T=3300 800 1 180 $X=2790 $Y=240
.ends XOR

* +++++++++++++++++++++++++++++++++++++++++++++++++++++++++ *
* Sub cell: M2_M1_CDNS_7654617506818                        *
* +++++++++++++++++++++++++++++++++++++++++++++++++++++++++ *
.subckt M2_M1_CDNS_7654617506818 1
** N=1 EP=1 FDC=0
.ends M2_M1_CDNS_7654617506818

* +++++++++++++++++++++++++++++++++++++++++++++++++++++++++ *
* Sub cell: M2_M1_CDNS_7654617506819                        *
* +++++++++++++++++++++++++++++++++++++++++++++++++++++++++ *
.subckt M2_M1_CDNS_7654617506819 1
** N=1 EP=1 FDC=0
.ends M2_M1_CDNS_7654617506819

* +++++++++++++++++++++++++++++++++++++++++++++++++++++++++ *
* Sub cell: M1_PO_CDNS_7654617506820                        *
* +++++++++++++++++++++++++++++++++++++++++++++++++++++++++ *
.subckt M1_PO_CDNS_7654617506820 1
** N=1 EP=1 FDC=0
.ends M1_PO_CDNS_7654617506820

* +++++++++++++++++++++++++++++++++++++++++++++++++++++++++ *
* Sub cell: pmos1v_CDNS_765461750688                        *
* +++++++++++++++++++++++++++++++++++++++++++++++++++++++++ *
.subckt pmos1v_CDNS_765461750688 1 2 3 4 5
** N=5 EP=5 FDC=1
M0 1 2 3 5 g45p1svt L=4.5e-08 W=1.2e-07 AD=1.92e-14 AS=1.92e-14 PD=5.6e-07 PS=5.6e-07 fw=1.2e-07 sa=5.5e-07 sb=3.45e-07 sca=6.86517 scb=0.00359333 scc=2.73027e-05 $X=0 $Y=0 $dt=1
.ends pmos1v_CDNS_765461750688

* +++++++++++++++++++++++++++++++++++++++++++++++++++++++++ *
* Sub cell: nmos1v_CDNS_765461750689                        *
* +++++++++++++++++++++++++++++++++++++++++++++++++++++++++ *
.subckt nmos1v_CDNS_765461750689 1 2 3
** N=3 EP=3 FDC=1
M0 3 2 1 1 g45n1svt L=4.5e-08 W=1.2e-07 AD=1.92e-14 AS=1.68e-14 PD=5.6e-07 PS=5.2e-07 fw=1.2e-07 sa=1.4e-07 sb=3.45e-07 sca=3.69959 scb=0.00013007 scc=4.39142e-09 $X=0 $Y=0 $dt=0
.ends nmos1v_CDNS_765461750689

* +++++++++++++++++++++++++++++++++++++++++++++++++++++++++ *
* Sub cell: pmos1v_CDNS_7654617506810                       *
* +++++++++++++++++++++++++++++++++++++++++++++++++++++++++ *
.subckt pmos1v_CDNS_7654617506810 1 2 3 4
** N=4 EP=4 FDC=1
M0 1 3 2 2 g45p1svt L=4.5e-08 W=1.2e-07 AD=1.92e-14 AS=1.92e-14 PD=5.6e-07 PS=5.6e-07 fw=1.2e-07 sa=3.45e-07 sb=5.5e-07 sca=6.86517 scb=0.00359333 scc=2.73027e-05 $X=0 $Y=0 $dt=1
.ends pmos1v_CDNS_7654617506810

* +++++++++++++++++++++++++++++++++++++++++++++++++++++++++ *
* Sub cell: pmos1v_CDNS_7654617506811                       *
* +++++++++++++++++++++++++++++++++++++++++++++++++++++++++ *
.subckt pmos1v_CDNS_7654617506811 1 2 3 4
** N=4 EP=4 FDC=1
M0 3 2 1 1 g45p1svt L=4.5e-08 W=1.2e-07 AD=7.2e-15 AS=1.68e-14 PD=3.6e-07 PS=5.2e-07 fw=1.2e-07 sa=1.4e-07 sb=2.45e-07 sca=6.86517 scb=0.00359333 scc=2.73027e-05 $X=0 $Y=0 $dt=1
.ends pmos1v_CDNS_7654617506811

* +++++++++++++++++++++++++++++++++++++++++++++++++++++++++ *
* Sub cell: pmos1v_CDNS_7654617506812                       *
* +++++++++++++++++++++++++++++++++++++++++++++++++++++++++ *
.subckt pmos1v_CDNS_7654617506812 1 2 3 4 5
** N=5 EP=5 FDC=1
M0 1 2 3 5 g45p1svt L=4.5e-08 W=1.2e-07 AD=1.68e-14 AS=7.2e-15 PD=5.2e-07 PS=3.6e-07 fw=1.2e-07 sa=2.45e-07 sb=1.4e-07 sca=6.86517 scb=0.00359333 scc=2.73027e-05 $X=0 $Y=0 $dt=1
.ends pmos1v_CDNS_7654617506812

* +++++++++++++++++++++++++++++++++++++++++++++++++++++++++ *
* Sub cell: nmos1v_CDNS_7654617506813                       *
* +++++++++++++++++++++++++++++++++++++++++++++++++++++++++ *
.subckt nmos1v_CDNS_7654617506813 1 2 3 4
*.DEVICECLIMB
** N=4 EP=4 FDC=0
.ends nmos1v_CDNS_7654617506813

* +++++++++++++++++++++++++++++++++++++++++++++++++++++++++ *
* Sub cell: nmos1v_CDNS_7654617506814                       *
* +++++++++++++++++++++++++++++++++++++++++++++++++++++++++ *
.subckt nmos1v_CDNS_7654617506814 1 2 3
** N=3 EP=3 FDC=1
M0 1 2 3 3 g45n1svt L=4.5e-08 W=1.2e-07 AD=1.68e-14 AS=1.92e-14 PD=5.2e-07 PS=5.6e-07 fw=1.2e-07 sa=6.55e-07 sb=1.4e-07 sca=3.69959 scb=0.00013007 scc=4.39142e-09 $X=0 $Y=0 $dt=0
.ends nmos1v_CDNS_7654617506814

* +++++++++++++++++++++++++++++++++++++++++++++++++++++++++ *
* Sub cell: nmos1v_CDNS_7654617506815                       *
* +++++++++++++++++++++++++++++++++++++++++++++++++++++++++ *
.subckt nmos1v_CDNS_7654617506815 1 2 3 4
** N=4 EP=4 FDC=1
M0 2 1 3 4 g45n1svt L=4.5e-08 W=1.2e-07 AD=1.92e-14 AS=7.2e-15 PD=5.6e-07 PS=3.6e-07 fw=1.2e-07 sa=4.5e-07 sb=3.45e-07 sca=3.69959 scb=0.00013007 scc=4.39142e-09 $X=0 $Y=0 $dt=0
.ends nmos1v_CDNS_7654617506815

* +++++++++++++++++++++++++++++++++++++++++++++++++++++++++ *
* Sub cell: nmos1v_CDNS_7654617506816                       *
* +++++++++++++++++++++++++++++++++++++++++++++++++++++++++ *
.subckt nmos1v_CDNS_7654617506816 1 2 3
** N=3 EP=3 FDC=1
M0 3 2 1 1 g45n1svt L=4.5e-08 W=1.2e-07 AD=7.2e-15 AS=1.92e-14 PD=3.6e-07 PS=5.6e-07 fw=1.2e-07 sa=3.45e-07 sb=4.5e-07 sca=3.69959 scb=0.00013007 scc=4.39142e-09 $X=0 $Y=0 $dt=0
.ends nmos1v_CDNS_7654617506816

* +++++++++++++++++++++++++++++++++++++++++++++++++++++++++ *
* Sub cell: pmos1v_CDNS_7654617506817                       *
* +++++++++++++++++++++++++++++++++++++++++++++++++++++++++ *
.subckt pmos1v_CDNS_7654617506817 1 2 3 4
** N=4 EP=4 FDC=1
M0 1 2 3 3 g45p1svt L=4.5e-08 W=1.2e-07 AD=1.68e-14 AS=1.92e-14 PD=5.2e-07 PS=5.6e-07 fw=1.2e-07 sa=7.55e-07 sb=1.4e-07 sca=6.86517 scb=0.00359333 scc=2.73027e-05 $X=0 $Y=0 $dt=1
.ends pmos1v_CDNS_7654617506817

* +++++++++++++++++++++++++++++++++++++++++++++++++++++++++ *
* Sub cell: pmos1v_CDNS_7654617506818                       *
* +++++++++++++++++++++++++++++++++++++++++++++++++++++++++ *
.subckt pmos1v_CDNS_7654617506818 1 2 3 4 5
** N=5 EP=5 FDC=1
M0 3 2 1 5 g45p1svt L=4.5e-08 W=1.2e-07 AD=1.92e-14 AS=1.68e-14 PD=5.6e-07 PS=5.2e-07 fw=1.2e-07 sa=1.4e-07 sb=7.55e-07 sca=78.5337 scb=0.0310796 scc=0.00873963 $X=0 $Y=0 $dt=1
.ends pmos1v_CDNS_7654617506818

* +++++++++++++++++++++++++++++++++++++++++++++++++++++++++ *
* Sub cell: HAdder                                          *
* +++++++++++++++++++++++++++++++++++++++++++++++++++++++++ *
.subckt HAdder 1 2 3 4 5 6 7 8 9 10
+ 11 12
** N=12 EP=12 FDC=16
X0 1 M2_M1_CDNS_765461750683 $T=2220 -7390 0 90 $X=2090 $Y=-7470
X1 1 M2_M1_CDNS_765461750683 $T=2220 -4680 0 90 $X=2090 $Y=-4760
X2 7 M2_M1_CDNS_765461750683 $T=4200 -2840 0 90 $X=4070 $Y=-2920
X3 8 M2_M1_CDNS_765461750683 $T=4570 -3920 0 90 $X=4440 $Y=-4000
X4 8 M1_PO_CDNS_7654617506815 $T=2340 -4370 0 90 $X=2090 $Y=-4470
X5 8 M1_PO_CDNS_7654617506815 $T=2930 -6480 0 90 $X=2680 $Y=-6580
X6 8 M1_PO_CDNS_7654617506815 $T=2950 -5710 0 90 $X=2700 $Y=-5810
X7 4 M1_PO_CDNS_7654617506815 $T=3490 -4140 0 90 $X=3240 $Y=-4240
X8 4 M1_PO_CDNS_7654617506815 $T=3500 -3460 0 90 $X=3250 $Y=-3560
X9 8 M2_M1_CDNS_7654617506816 $T=2340 -4370 0 90 $X=2090 $Y=-4450
X10 8 M2_M1_CDNS_7654617506816 $T=2930 -6480 0 90 $X=2680 $Y=-6560
X11 8 M2_M1_CDNS_7654617506816 $T=2950 -5710 0 90 $X=2700 $Y=-5790
X12 4 M2_M1_CDNS_7654617506816 $T=3490 -4140 0 90 $X=3240 $Y=-4220
X13 4 M2_M1_CDNS_7654617506816 $T=3500 -3460 0 90 $X=3250 $Y=-3540
X14 9 M2_M1_CDNS_7654617506816 $T=5640 -5920 0 90 $X=5390 $Y=-6000
X15 9 M2_M1_CDNS_7654617506816 $T=5640 -5080 0 90 $X=5390 $Y=-5160
X16 9 M2_M1_CDNS_7654617506816 $T=5640 -4300 0 90 $X=5390 $Y=-4380
X17 6 6 4 8 2 pmos1v_CDNS_765461750686 $T=5520 -3500 0 270 $X=5320 $Y=-4010
X18 6 6 5 7 2 pmos1v_CDNS_765461750686 $T=5520 -2570 0 270 $X=5320 $Y=-3080
X19 2 2 4 8 nmos1v_CDNS_765461750687 $T=1570 -3500 0 270 $X=1010 $Y=-4010
X20 2 2 5 7 nmos1v_CDNS_765461750687 $T=1580 -2570 0 270 $X=1020 $Y=-3080
X21 10 M2_M1_CDNS_7654617506818 $T=1300 -5710 0 90 $X=1170 $Y=-5840
X22 10 M2_M1_CDNS_7654617506818 $T=1300 -4270 0 90 $X=1170 $Y=-4400
X23 4 M2_M1_CDNS_7654617506819 $T=3500 -4810 0 0 $X=3250 $Y=-4940
X24 4 M2_M1_CDNS_7654617506819 $T=3500 -1930 0 0 $X=3250 $Y=-2060
X25 7 M2_M1_CDNS_7654617506819 $T=4210 -6730 0 0 $X=3960 $Y=-6860
X26 7 M2_M1_CDNS_7654617506819 $T=4210 -5370 0 0 $X=3960 $Y=-5500
X27 8 M2_M1_CDNS_7654617506819 $T=4540 -5740 0 0 $X=4290 $Y=-5870
X28 5 M2_M1_CDNS_7654617506819 $T=4960 -4960 0 0 $X=4710 $Y=-5090
X29 5 M2_M1_CDNS_7654617506819 $T=4960 -2500 0 0 $X=4710 $Y=-2630
X30 4 M1_PO_CDNS_7654617506820 $T=3500 -4810 0 0 $X=3260 $Y=-4910
X31 7 M1_PO_CDNS_7654617506820 $T=4210 -6730 0 0 $X=3970 $Y=-6830
X32 7 M1_PO_CDNS_7654617506820 $T=4210 -5370 0 0 $X=3970 $Y=-5470
X33 8 M1_PO_CDNS_7654617506820 $T=4540 -5740 0 0 $X=4300 $Y=-5840
X34 5 M1_PO_CDNS_7654617506820 $T=4960 -4960 0 0 $X=4720 $Y=-5060
X35 5 M1_PO_CDNS_7654617506820 $T=4960 -2500 0 0 $X=4720 $Y=-2600
X36 1 5 9 2 6 pmos1v_CDNS_765461750688 $T=5520 -4930 1 90 $X=5320 $Y=-5170
X37 2 7 3 nmos1v_CDNS_765461750689 $T=1570 -6890 1 90 $X=1370 $Y=-7310
X38 9 6 7 2 pmos1v_CDNS_7654617506810 $T=5520 -5340 1 90 $X=5320 $Y=-5700
X39 6 8 11 2 pmos1v_CDNS_7654617506811 $T=5520 -6590 0 270 $X=5320 $Y=-6880
X40 3 7 11 2 6 pmos1v_CDNS_7654617506812 $T=5520 -6800 0 270 $X=5320 $Y=-7310
X41 2 3 8 2 nmos1v_CDNS_7654617506813 $T=1570 -6390 0 270 $X=1370 $Y=-6840
X42 10 1 8 2 nmos1v_CDNS_7654617506813 $T=1570 -4430 0 270 $X=1370 $Y=-4880
X43 10 7 2 nmos1v_CDNS_7654617506814 $T=1570 -5460 0 270 $X=1370 $Y=-5970
X44 4 1 12 2 nmos1v_CDNS_7654617506815 $T=1570 -4930 1 90 $X=1370 $Y=-5130
X45 2 5 12 nmos1v_CDNS_7654617506816 $T=1570 -5140 1 90 $X=1370 $Y=-5500
X46 9 8 6 2 pmos1v_CDNS_7654617506817 $T=5520 -5660 0 270 $X=5320 $Y=-6170
X47 9 4 1 2 6 pmos1v_CDNS_7654617506818 $T=5520 -4430 0 270 $X=5320 $Y=-4760
M0 2 8 3 2 g45n1svt L=4.5e-08 W=1.2e-07 AD=1.68e-14 AS=1.92e-14 PD=5.2e-07 PS=5.6e-07 fw=1.2e-07 sa=3.45e-07 sb=1.4e-07 sca=3.69959 scb=0.00013007 scc=4.39142e-09 $X=1570 $Y=-6480 $dt=0
M1 10 8 1 2 g45n1svt L=4.5e-08 W=1.2e-07 AD=1.68e-14 AS=1.92e-14 PD=5.2e-07 PS=5.6e-07 fw=1.2e-07 sa=6.55e-07 sb=1.4e-07 sca=3.69959 scb=0.00013007 scc=4.39142e-09 $X=1570 $Y=-4520 $dt=0
M2 6 4 8 6 g45p1svt L=4.5e-08 W=1.2e-07 AD=1.68e-14 AS=1.68e-14 PD=5.2e-07 PS=5.2e-07 fw=1.2e-07 sa=1.4e-07 sb=1.4e-07 sca=100.171 scb=0.0396101 scc=0.0112296 $X=5520 $Y=-3590 $dt=1
M3 6 5 7 6 g45p1svt L=4.5e-08 W=1.2e-07 AD=1.68e-14 AS=1.68e-14 PD=5.2e-07 PS=5.2e-07 fw=1.2e-07 sa=1.4e-07 sb=1.4e-07 sca=118.462 scb=0.0629606 scc=0.0138757 $X=5520 $Y=-2660 $dt=1
.ends HAdder

* +++++++++++++++++++++++++++++++++++++++++++++++++++++++++ *
* Sub cell: M4_M3_CDNS_7654617506821                        *
* +++++++++++++++++++++++++++++++++++++++++++++++++++++++++ *
.subckt M4_M3_CDNS_7654617506821 1
** N=1 EP=1 FDC=0
.ends M4_M3_CDNS_7654617506821

* +++++++++++++++++++++++++++++++++++++++++++++++++++++++++ *
* Sub cell: M7_M6_CDNS_7654617506822                        *
* +++++++++++++++++++++++++++++++++++++++++++++++++++++++++ *
.subckt M7_M6_CDNS_7654617506822 1
** N=1 EP=1 FDC=0
.ends M7_M6_CDNS_7654617506822

* +++++++++++++++++++++++++++++++++++++++++++++++++++++++++ *
* Sub cell: M1_PO_CDNS_7654617506823                        *
* +++++++++++++++++++++++++++++++++++++++++++++++++++++++++ *
.subckt M1_PO_CDNS_7654617506823 1
** N=1 EP=1 FDC=0
.ends M1_PO_CDNS_7654617506823

* +++++++++++++++++++++++++++++++++++++++++++++++++++++++++ *
* Sub cell: M6_M5_CDNS_7654617506824                        *
* +++++++++++++++++++++++++++++++++++++++++++++++++++++++++ *
.subckt M6_M5_CDNS_7654617506824 1
** N=1 EP=1 FDC=0
.ends M6_M5_CDNS_7654617506824

* +++++++++++++++++++++++++++++++++++++++++++++++++++++++++ *
* Sub cell: M5_M4_CDNS_7654617506825                        *
* +++++++++++++++++++++++++++++++++++++++++++++++++++++++++ *
.subckt M5_M4_CDNS_7654617506825 1
** N=1 EP=1 FDC=0
.ends M5_M4_CDNS_7654617506825

* +++++++++++++++++++++++++++++++++++++++++++++++++++++++++ *
* Sub cell: M1_PO_CDNS_7654617506826                        *
* +++++++++++++++++++++++++++++++++++++++++++++++++++++++++ *
.subckt M1_PO_CDNS_7654617506826 1
** N=1 EP=1 FDC=0
.ends M1_PO_CDNS_7654617506826

* +++++++++++++++++++++++++++++++++++++++++++++++++++++++++ *
* Sub cell: M2_M1_CDNS_7654617506827                        *
* +++++++++++++++++++++++++++++++++++++++++++++++++++++++++ *
.subckt M2_M1_CDNS_7654617506827 1
** N=1 EP=1 FDC=0
.ends M2_M1_CDNS_7654617506827

* +++++++++++++++++++++++++++++++++++++++++++++++++++++++++ *
* Sub cell: M2_M1_CDNS_7654617506829                        *
* +++++++++++++++++++++++++++++++++++++++++++++++++++++++++ *
.subckt M2_M1_CDNS_7654617506829 1
** N=1 EP=1 FDC=0
.ends M2_M1_CDNS_7654617506829

* +++++++++++++++++++++++++++++++++++++++++++++++++++++++++ *
* Sub cell: M7_M6_CDNS_7654617506830                        *
* +++++++++++++++++++++++++++++++++++++++++++++++++++++++++ *
.subckt M7_M6_CDNS_7654617506830 1
** N=1 EP=1 FDC=0
.ends M7_M6_CDNS_7654617506830

* +++++++++++++++++++++++++++++++++++++++++++++++++++++++++ *
* Sub cell: M6_M5_CDNS_7654617506831                        *
* +++++++++++++++++++++++++++++++++++++++++++++++++++++++++ *
.subckt M6_M5_CDNS_7654617506831 1
** N=1 EP=1 FDC=0
.ends M6_M5_CDNS_7654617506831

* +++++++++++++++++++++++++++++++++++++++++++++++++++++++++ *
* Sub cell: M6_M5_CDNS_7654617506832                        *
* +++++++++++++++++++++++++++++++++++++++++++++++++++++++++ *
.subckt M6_M5_CDNS_7654617506832 1
** N=1 EP=1 FDC=0
.ends M6_M5_CDNS_7654617506832

* +++++++++++++++++++++++++++++++++++++++++++++++++++++++++ *
* Sub cell: M3_M2_CDNS_7654617506833                        *
* +++++++++++++++++++++++++++++++++++++++++++++++++++++++++ *
.subckt M3_M2_CDNS_7654617506833 1
** N=1 EP=1 FDC=0
.ends M3_M2_CDNS_7654617506833

* +++++++++++++++++++++++++++++++++++++++++++++++++++++++++ *
* Sub cell: M5_M4_CDNS_7654617506834                        *
* +++++++++++++++++++++++++++++++++++++++++++++++++++++++++ *
.subckt M5_M4_CDNS_7654617506834 1
** N=1 EP=1 FDC=0
.ends M5_M4_CDNS_7654617506834

* +++++++++++++++++++++++++++++++++++++++++++++++++++++++++ *
* Sub cell: pmos1v_CDNS_7654617506819                       *
* +++++++++++++++++++++++++++++++++++++++++++++++++++++++++ *
.subckt pmos1v_CDNS_7654617506819 1 2 3 4 5
** N=5 EP=5 FDC=1
M0 4 3 1 2 g45p1svt L=4.5e-08 W=1.2e-07 AD=1.68e-14 AS=1.68e-14 PD=5.2e-07 PS=5.2e-07 fw=1.2e-07 sa=1.4e-07 sb=1.4e-07 sca=3.73438 scb=0.00013556 scc=4.76679e-09 $X=0 $Y=0 $dt=1
.ends pmos1v_CDNS_7654617506819

* +++++++++++++++++++++++++++++++++++++++++++++++++++++++++ *
* Sub cell: nmos1v_CDNS_7654617506820                       *
* +++++++++++++++++++++++++++++++++++++++++++++++++++++++++ *
.subckt nmos1v_CDNS_7654617506820 1 2 3 4
** N=4 EP=4 FDC=1
M0 4 3 1 2 g45n1svt L=4.5e-08 W=1.2e-07 AD=1.68e-14 AS=1.68e-14 PD=5.2e-07 PS=5.2e-07 fw=1.2e-07 sa=1.4e-07 sb=1.4e-07 sca=3.69959 scb=0.00013007 scc=4.39142e-09 $X=0 $Y=0 $dt=0
.ends nmos1v_CDNS_7654617506820

* +++++++++++++++++++++++++++++++++++++++++++++++++++++++++ *
* Sub cell: 4bit_CLA_logic                                  *
* +++++++++++++++++++++++++++++++++++++++++++++++++++++++++ *
.subckt 4bit_CLA_logic 1 2 3 4 5 6 7 8 9 10
+ 11 12 13 14 15 16 17 18 19 20
+ 21 22 23 24 25 26 27 28 29 30
+ 31 32 33 34 35 36 37 38 39
*.DEVICECLIMB
** N=39 EP=39 FDC=54
X0 2 M4_M3_CDNS_765461750680 $T=610 4030 0 0 $X=530 $Y=3780
X1 1 M4_M3_CDNS_765461750680 $T=930 5440 0 0 $X=850 $Y=5190
X2 2 M4_M3_CDNS_765461750680 $T=2790 4030 0 0 $X=2710 $Y=3780
X3 1 M4_M3_CDNS_765461750680 $T=5580 5440 0 0 $X=5500 $Y=5190
X4 2 M4_M3_CDNS_765461750680 $T=7440 4030 0 0 $X=7360 $Y=3780
X5 10 M4_M3_CDNS_765461750680 $T=8700 3090 0 0 $X=8620 $Y=2840
X6 9 M4_M3_CDNS_765461750680 $T=10230 6380 0 0 $X=10150 $Y=6130
X7 1 M4_M3_CDNS_765461750680 $T=12090 5440 0 0 $X=12010 $Y=5190
X8 2 M4_M3_CDNS_765461750680 $T=13950 4030 0 0 $X=13870 $Y=3780
X9 10 M4_M3_CDNS_765461750680 $T=15810 3090 0 0 $X=15730 $Y=2840
X10 9 M4_M3_CDNS_765461750680 $T=18600 6380 0 0 $X=18520 $Y=6130
X11 1 M4_M3_CDNS_765461750680 $T=20460 5440 0 0 $X=20380 $Y=5190
X12 2 M4_M3_CDNS_765461750680 $T=22320 4030 0 0 $X=22240 $Y=3780
X13 10 M4_M3_CDNS_765461750680 $T=24180 3090 0 0 $X=24100 $Y=2840
X14 16 M5_M4_CDNS_765461750684 $T=3580 4500 0 0 $X=3360 $Y=4250
X15 17 M5_M4_CDNS_765461750684 $T=9160 4500 0 0 $X=8940 $Y=4250
X16 18 M5_M4_CDNS_765461750684 $T=16600 4500 0 0 $X=16380 $Y=4250
X17 19 M5_M4_CDNS_765461750684 $T=25900 4500 0 0 $X=25680 $Y=4250
X18 2 M3_M2_CDNS_765461750685 $T=610 4030 0 0 $X=530 $Y=3780
X19 1 M3_M2_CDNS_765461750685 $T=930 5440 0 0 $X=850 $Y=5190
X20 2 M3_M2_CDNS_765461750685 $T=2790 4030 0 0 $X=2710 $Y=3780
X21 7 M3_M2_CDNS_765461750685 $T=3110 3560 0 0 $X=3030 $Y=3310
X22 8 M3_M2_CDNS_765461750685 $T=4110 1490 0 0 $X=4030 $Y=1240
X23 1 M3_M2_CDNS_765461750685 $T=5580 5440 0 0 $X=5500 $Y=5190
X24 2 M3_M2_CDNS_765461750685 $T=7440 4030 0 0 $X=7360 $Y=3780
X25 10 M3_M2_CDNS_765461750685 $T=8700 3090 0 0 $X=8620 $Y=2840
X26 11 M3_M2_CDNS_765461750685 $T=9690 1490 0 0 $X=9610 $Y=1240
X27 9 M3_M2_CDNS_765461750685 $T=10230 6380 0 0 $X=10150 $Y=6130
X28 1 M3_M2_CDNS_765461750685 $T=12090 5440 0 0 $X=12010 $Y=5190
X29 2 M3_M2_CDNS_765461750685 $T=13950 4030 0 0 $X=13870 $Y=3780
X30 10 M3_M2_CDNS_765461750685 $T=15810 3090 0 0 $X=15730 $Y=2840
X31 13 M3_M2_CDNS_765461750685 $T=17130 1490 0 0 $X=17050 $Y=1240
X32 14 M3_M2_CDNS_765461750685 $T=17490 2630 0 0 $X=17410 $Y=2380
X33 9 M3_M2_CDNS_765461750685 $T=18600 6380 0 0 $X=18520 $Y=6130
X34 1 M3_M2_CDNS_765461750685 $T=20460 5440 0 0 $X=20380 $Y=5190
X35 2 M3_M2_CDNS_765461750685 $T=22320 4030 0 0 $X=22240 $Y=3780
X36 10 M3_M2_CDNS_765461750685 $T=24180 3090 0 0 $X=24100 $Y=2840
X37 15 M3_M2_CDNS_765461750685 $T=26430 1490 0 0 $X=26350 $Y=1240
X38 16 M4_M3_CDNS_765461750686 $T=3580 4500 0 0 $X=3360 $Y=4250
X39 17 M4_M3_CDNS_765461750686 $T=9160 4500 0 0 $X=8940 $Y=4250
X40 18 M4_M3_CDNS_765461750686 $T=16600 4500 0 0 $X=16380 $Y=4250
X41 19 M4_M3_CDNS_765461750686 $T=25900 4500 0 0 $X=25680 $Y=4250
X42 16 M3_M2_CDNS_765461750687 $T=3580 4500 0 0 $X=3360 $Y=4250
X43 17 M3_M2_CDNS_765461750687 $T=9160 4500 0 0 $X=8940 $Y=4250
X44 18 M3_M2_CDNS_765461750687 $T=16600 4500 0 0 $X=16380 $Y=4250
X45 19 M3_M2_CDNS_765461750687 $T=25900 4500 0 0 $X=25680 $Y=4250
X46 16 M2_M1_CDNS_765461750688 $T=3580 4500 0 0 $X=3360 $Y=4250
X47 17 M2_M1_CDNS_765461750688 $T=9160 4500 0 0 $X=8940 $Y=4250
X48 18 M2_M1_CDNS_765461750688 $T=16600 4500 0 0 $X=16380 $Y=4250
X49 19 M2_M1_CDNS_765461750688 $T=25900 4500 0 0 $X=25680 $Y=4250
X50 7 M4_M3_CDNS_7654617506811 $T=3110 3560 0 0 $X=3030 $Y=3310
X51 8 M4_M3_CDNS_7654617506811 $T=4110 1490 0 0 $X=4030 $Y=1240
X52 11 M4_M3_CDNS_7654617506811 $T=9690 1490 0 0 $X=9610 $Y=1240
X53 13 M4_M3_CDNS_7654617506811 $T=17130 1490 0 0 $X=17050 $Y=1240
X54 14 M4_M3_CDNS_7654617506811 $T=17490 2630 0 0 $X=17410 $Y=2380
X55 15 M4_M3_CDNS_7654617506811 $T=26430 1490 0 0 $X=26350 $Y=1240
X56 3 M3_M2_CDNS_7654617506813 $T=250 4970 0 90 $X=0 $Y=4890
X57 3 M3_M2_CDNS_7654617506813 $T=1860 4970 0 0 $X=1780 $Y=4720
X58 6 M3_M2_CDNS_7654617506813 $T=4650 5910 0 0 $X=4570 $Y=5660
X59 3 M3_M2_CDNS_7654617506813 $T=6510 4970 0 0 $X=6430 $Y=4720