* +++++++++++++++++++++++++++++++++++++++++++++++++++++++++ *
* CDL Netlist:                                              *
*                                                           *
* Cell Name  : WallaceProject                               *
* Netlisted  : Fri Dec 12 00:42:20 2025                     *
* PVS Version: 23.11-s036 Wed Jan 17 18:11:41 PST 2024      *
* +++++++++++++++++++++++++++++++++++++++++++++++++++++++++ *
*.LDD
*.DEVTMPLT 0 MN(g45n1svt) _nmos1v ndiff_conn(D) poly_conn(G) ndiff_conn(S) psubstrate(B)
*.DEVTMPLT 1 MP(g45p1svt) _pmos1v pdiff_conn(D) poly_conn(G) pdiff_conn(S) nwell_conn(B)

* +++++++++++++++++++++++++++++++++++++++++++++++++++++++++ *
* Sub cell: M2_M1_CDNS_765518135320                         *
* +++++++++++++++++++++++++++++++++++++++++++++++++++++++++ *
.subckt M2_M1_CDNS_765518135320 1
** N=1 EP=1 FDC=0
.ends M2_M1_CDNS_765518135320

* +++++++++++++++++++++++++++++++++++++++++++++++++++++++++ *
* Sub cell: M4_M3_CDNS_765518135321                         *
* +++++++++++++++++++++++++++++++++++++++++++++++++++++++++ *
.subckt M4_M3_CDNS_765518135321 1
** N=1 EP=1 FDC=0
.ends M4_M3_CDNS_765518135321

* +++++++++++++++++++++++++++++++++++++++++++++++++++++++++ *
* Sub cell: M3_M2_CDNS_765518135322                         *
* +++++++++++++++++++++++++++++++++++++++++++++++++++++++++ *
.subckt M3_M2_CDNS_765518135322 1
** N=1 EP=1 FDC=0
.ends M3_M2_CDNS_765518135322

* +++++++++++++++++++++++++++++++++++++++++++++++++++++++++ *
* Sub cell: M2_M1_CDNS_765518135323                         *
* +++++++++++++++++++++++++++++++++++++++++++++++++++++++++ *
.subckt M2_M1_CDNS_765518135323 1
** N=1 EP=1 FDC=0
.ends M2_M1_CDNS_765518135323

* +++++++++++++++++++++++++++++++++++++++++++++++++++++++++ *
* Sub cell: M3_M2_CDNS_765518135324                         *
* +++++++++++++++++++++++++++++++++++++++++++++++++++++++++ *
.subckt M3_M2_CDNS_765518135324 1
** N=1 EP=1 FDC=0
.ends M3_M2_CDNS_765518135324

* +++++++++++++++++++++++++++++++++++++++++++++++++++++++++ *
* Sub cell: M3_M2_CDNS_765518135325                         *
* +++++++++++++++++++++++++++++++++++++++++++++++++++++++++ *
.subckt M3_M2_CDNS_765518135325 1
** N=1 EP=1 FDC=0
.ends M3_M2_CDNS_765518135325

* +++++++++++++++++++++++++++++++++++++++++++++++++++++++++ *
* Sub cell: M2_M1_CDNS_765518135326                         *
* +++++++++++++++++++++++++++++++++++++++++++++++++++++++++ *
.subckt M2_M1_CDNS_765518135326 1
** N=1 EP=1 FDC=0
.ends M2_M1_CDNS_765518135326

* +++++++++++++++++++++++++++++++++++++++++++++++++++++++++ *
* Sub cell: M3_M2_CDNS_765518135327                         *
* +++++++++++++++++++++++++++++++++++++++++++++++++++++++++ *
.subckt M3_M2_CDNS_765518135327 1
** N=1 EP=1 FDC=0
.ends M3_M2_CDNS_765518135327

* +++++++++++++++++++++++++++++++++++++++++++++++++++++++++ *
* Sub cell: M2_M1_CDNS_765518135328                         *
* +++++++++++++++++++++++++++++++++++++++++++++++++++++++++ *
.subckt M2_M1_CDNS_765518135328 1
** N=1 EP=1 FDC=0
.ends M2_M1_CDNS_765518135328

* +++++++++++++++++++++++++++++++++++++++++++++++++++++++++ *
* Sub cell: M3_M2_CDNS_765518135329                         *
* +++++++++++++++++++++++++++++++++++++++++++++++++++++++++ *
.subckt M3_M2_CDNS_765518135329 1
** N=1 EP=1 FDC=0
.ends M3_M2_CDNS_765518135329

* +++++++++++++++++++++++++++++++++++++++++++++++++++++++++ *
* Sub cell: M4_M3_CDNS_7655181353210                        *
* +++++++++++++++++++++++++++++++++++++++++++++++++++++++++ *
.subckt M4_M3_CDNS_7655181353210 1
** N=1 EP=1 FDC=0
.ends M4_M3_CDNS_7655181353210

* +++++++++++++++++++++++++++++++++++++++++++++++++++++++++ *
* Sub cell: M3_M2_CDNS_7655181353211                        *
* +++++++++++++++++++++++++++++++++++++++++++++++++++++++++ *
.subckt M3_M2_CDNS_7655181353211 1
** N=1 EP=1 FDC=0
.ends M3_M2_CDNS_7655181353211

* +++++++++++++++++++++++++++++++++++++++++++++++++++++++++ *
* Sub cell: M3_M2_CDNS_7655181353212                        *
* +++++++++++++++++++++++++++++++++++++++++++++++++++++++++ *
.subckt M3_M2_CDNS_7655181353212 1
** N=1 EP=1 FDC=0
.ends M3_M2_CDNS_7655181353212

* +++++++++++++++++++++++++++++++++++++++++++++++++++++++++ *
* Sub cell: M3_M2_CDNS_7655181353213                        *
* +++++++++++++++++++++++++++++++++++++++++++++++++++++++++ *
.subckt M3_M2_CDNS_7655181353213 1
** N=1 EP=1 FDC=0
.ends M3_M2_CDNS_7655181353213

* +++++++++++++++++++++++++++++++++++++++++++++++++++++++++ *
* Sub cell: M4_M3_CDNS_7655181353214                        *
* +++++++++++++++++++++++++++++++++++++++++++++++++++++++++ *
.subckt M4_M3_CDNS_7655181353214 1
** N=1 EP=1 FDC=0
.ends M4_M3_CDNS_7655181353214

* +++++++++++++++++++++++++++++++++++++++++++++++++++++++++ *
* Sub cell: M4_M3_CDNS_7655181353215                        *
* +++++++++++++++++++++++++++++++++++++++++++++++++++++++++ *
.subckt M4_M3_CDNS_7655181353215 1
** N=1 EP=1 FDC=0
.ends M4_M3_CDNS_7655181353215

* +++++++++++++++++++++++++++++++++++++++++++++++++++++++++ *
* Sub cell: M3_M2_CDNS_7655181353216                        *
* +++++++++++++++++++++++++++++++++++++++++++++++++++++++++ *
.subckt M3_M2_CDNS_7655181353216 1
** N=1 EP=1 FDC=0
.ends M3_M2_CDNS_7655181353216

* +++++++++++++++++++++++++++++++++++++++++++++++++++++++++ *
* Sub cell: M4_M3_CDNS_7655181353217                        *
* +++++++++++++++++++++++++++++++++++++++++++++++++++++++++ *
.subckt M4_M3_CDNS_7655181353217 1
** N=1 EP=1 FDC=0
.ends M4_M3_CDNS_7655181353217

* +++++++++++++++++++++++++++++++++++++++++++++++++++++++++ *
* Sub cell: M4_M3_CDNS_7655181353218                        *
* +++++++++++++++++++++++++++++++++++++++++++++++++++++++++ *
.subckt M4_M3_CDNS_7655181353218 1
** N=1 EP=1 FDC=0
.ends M4_M3_CDNS_7655181353218

* +++++++++++++++++++++++++++++++++++++++++++++++++++++++++ *
* Sub cell: M5_M4_CDNS_7655181353220                        *
* +++++++++++++++++++++++++++++++++++++++++++++++++++++++++ *
.subckt M5_M4_CDNS_7655181353220 1
** N=1 EP=1 FDC=0
.ends M5_M4_CDNS_7655181353220

* +++++++++++++++++++++++++++++++++++++++++++++++++++++++++ *
* Sub cell: M5_M4_CDNS_7655181353221                        *
* +++++++++++++++++++++++++++++++++++++++++++++++++++++++++ *
.subckt M5_M4_CDNS_7655181353221 1
** N=1 EP=1 FDC=0
.ends M5_M4_CDNS_7655181353221

* +++++++++++++++++++++++++++++++++++++++++++++++++++++++++ *
* Sub cell: M5_M4_CDNS_7655181353222                        *
* +++++++++++++++++++++++++++++++++++++++++++++++++++++++++ *
.subckt M5_M4_CDNS_7655181353222 1
** N=1 EP=1 FDC=0
.ends M5_M4_CDNS_7655181353222

* +++++++++++++++++++++++++++++++++++++++++++++++++++++++++ *
* Sub cell: M2_M1_CDNS_7655181353223                        *
* +++++++++++++++++++++++++++++++++++++++++++++++++++++++++ *
.subckt M2_M1_CDNS_7655181353223 1
** N=1 EP=1 FDC=0
.ends M2_M1_CDNS_7655181353223

* +++++++++++++++++++++++++++++++++++++++++++++++++++++++++ *
* Sub cell: M5_M4_CDNS_7655181353224                        *
* +++++++++++++++++++++++++++++++++++++++++++++++++++++++++ *
.subckt M5_M4_CDNS_7655181353224 1
** N=1 EP=1 FDC=0
.ends M5_M4_CDNS_7655181353224

* +++++++++++++++++++++++++++++++++++++++++++++++++++++++++ *
* Sub cell: M5_M4_CDNS_7655181353225                        *
* +++++++++++++++++++++++++++++++++++++++++++++++++++++++++ *
.subckt M5_M4_CDNS_7655181353225 1
** N=1 EP=1 FDC=0
.ends M5_M4_CDNS_7655181353225

* +++++++++++++++++++++++++++++++++++++++++++++++++++++++++ *
* Sub cell: M4_M3_CDNS_7655181353228                        *
* +++++++++++++++++++++++++++++++++++++++++++++++++++++++++ *
.subckt M4_M3_CDNS_7655181353228 1
** N=1 EP=1 FDC=0
.ends M4_M3_CDNS_7655181353228

* +++++++++++++++++++++++++++++++++++++++++++++++++++++++++ *
* Sub cell: M2_M1_CDNS_7655181353229                        *
* +++++++++++++++++++++++++++++++++++++++++++++++++++++++++ *
.subckt M2_M1_CDNS_7655181353229 1
** N=1 EP=1 FDC=0
.ends M2_M1_CDNS_7655181353229

* +++++++++++++++++++++++++++++++++++++++++++++++++++++++++ *
* Sub cell: M5_M4_CDNS_7655181353230                        *
* +++++++++++++++++++++++++++++++++++++++++++++++++++++++++ *
.subckt M5_M4_CDNS_7655181353230 1
** N=1 EP=1 FDC=0
.ends M5_M4_CDNS_7655181353230

* +++++++++++++++++++++++++++++++++++++++++++++++++++++++++ *
* Sub cell: M3_M2_CDNS_7655181353231                        *
* +++++++++++++++++++++++++++++++++++++++++++++++++++++++++ *
.subckt M3_M2_CDNS_7655181353231 1
** N=1 EP=1 FDC=0
.ends M3_M2_CDNS_7655181353231

* +++++++++++++++++++++++++++++++++++++++++++++++++++++++++ *
* Sub cell: M5_M4_CDNS_7655181353232                        *
* +++++++++++++++++++++++++++++++++++++++++++++++++++++++++ *
.subckt M5_M4_CDNS_7655181353232 1
** N=1 EP=1 FDC=0
.ends M5_M4_CDNS_7655181353232

* +++++++++++++++++++++++++++++++++++++++++++++++++++++++++ *
* Sub cell: M3_M2_CDNS_7655181353233                        *
* +++++++++++++++++++++++++++++++++++++++++++++++++++++++++ *
.subckt M3_M2_CDNS_7655181353233 1
** N=1 EP=1 FDC=0
.ends M3_M2_CDNS_7655181353233

* +++++++++++++++++++++++++++++++++++++++++++++++++++++++++ *
* Sub cell: M4_M3_CDNS_7655181353236                        *
* +++++++++++++++++++++++++++++++++++++++++++++++++++++++++ *
.subckt M4_M3_CDNS_7655181353236 1
** N=1 EP=1 FDC=0
.ends M4_M3_CDNS_7655181353236

* +++++++++++++++++++++++++++++++++++++++++++++++++++++++++ *
* Sub cell: M3_M2_CDNS_7655181353238                        *
* +++++++++++++++++++++++++++++++++++++++++++++++++++++++++ *
.subckt M3_M2_CDNS_7655181353238 1
** N=1 EP=1 FDC=0
.ends M3_M2_CDNS_7655181353238

* +++++++++++++++++++++++++++++++++++++++++++++++++++++++++ *
* Sub cell: M1_PO_CDNS_7655181353241                        *
* +++++++++++++++++++++++++++++++++++++++++++++++++++++++++ *
.subckt M1_PO_CDNS_7655181353241 1
** N=1 EP=1 FDC=0
.ends M1_PO_CDNS_7655181353241

* +++++++++++++++++++++++++++++++++++++++++++++++++++++++++ *
* Sub cell: pmos1v_CDNS_765518135320                        *
* +++++++++++++++++++++++++++++++++++++++++++++++++++++++++ *
.subckt pmos1v_CDNS_765518135320 1 2 3 4 5
*.DEVICECLIMB
** N=5 EP=5 FDC=0
.ends pmos1v_CDNS_765518135320

* +++++++++++++++++++++++++++++++++++++++++++++++++++++++++ *
* Sub cell: nmos1v_CDNS_765518135321                        *
* +++++++++++++++++++++++++++++++++++++++++++++++++++++++++ *
.subckt nmos1v_CDNS_765518135321 1 2 3 4
*.DEVICECLIMB
** N=4 EP=4 FDC=0
.ends nmos1v_CDNS_765518135321

* +++++++++++++++++++++++++++++++++++++++++++++++++++++++++ *
* Sub cell: Diver                                           *
* +++++++++++++++++++++++++++++++++++++++++++++++++++++++++ *
.subckt Diver a vdd gnd b 5
*.DEVICECLIMB
** N=5 EP=5 FDC=0
X0 a M1_PO_CDNS_7655181353241 $T=1260 -2440 0 0 $X=1160 $Y=-2560
X1 5 M1_PO_CDNS_7655181353241 $T=2200 -2440 0 0 $X=2100 $Y=-2560
X2 vdd vdd a 5 gnd pmos1v_CDNS_765518135320 $T=1340 -2060 0 0 $X=920 $Y=-2260
X3 vdd vdd 5 b gnd pmos1v_CDNS_765518135320 $T=2270 -2060 0 0 $X=1850 $Y=-2260
X4 gnd gnd a 5 nmos1v_CDNS_765518135321 $T=1340 -3070 0 0 $X=920 $Y=-3630
X5 gnd gnd 5 b nmos1v_CDNS_765518135321 $T=2270 -3070 0 0 $X=1850 $Y=-3630
.ends Diver

* +++++++++++++++++++++++++++++++++++++++++++++++++++++++++ *
* Sub cell: M2_M1_CDNS_7655181353243                        *
* +++++++++++++++++++++++++++++++++++++++++++++++++++++++++ *
.subckt M2_M1_CDNS_7655181353243 1
** N=1 EP=1 FDC=0
.ends M2_M1_CDNS_7655181353243

* +++++++++++++++++++++++++++++++++++++++++++++++++++++++++ *
* Sub cell: M1_PO_CDNS_7655181353244                        *
* +++++++++++++++++++++++++++++++++++++++++++++++++++++++++ *
.subckt M1_PO_CDNS_7655181353244 1
** N=1 EP=1 FDC=0
.ends M1_PO_CDNS_7655181353244

* +++++++++++++++++++++++++++++++++++++++++++++++++++++++++ *
* Sub cell: M2_M1_CDNS_7655181353245                        *
* +++++++++++++++++++++++++++++++++++++++++++++++++++++++++ *
.subckt M2_M1_CDNS_7655181353245 1
** N=1 EP=1 FDC=0
.ends M2_M1_CDNS_7655181353245

* +++++++++++++++++++++++++++++++++++++++++++++++++++++++++ *
* Sub cell: M1_PO_CDNS_7655181353246                        *
* +++++++++++++++++++++++++++++++++++++++++++++++++++++++++ *
.subckt M1_PO_CDNS_7655181353246 1
** N=1 EP=1 FDC=0
.ends M1_PO_CDNS_7655181353246

* +++++++++++++++++++++++++++++++++++++++++++++++++++++++++ *
* Sub cell: pmos1v_CDNS_765518135322                        *
* +++++++++++++++++++++++++++++++++++++++++++++++++++++++++ *
.subckt pmos1v_CDNS_765518135322 1 2 3 4 5
*.DEVICECLIMB
** N=5 EP=5 FDC=0
.ends pmos1v_CDNS_765518135322

* +++++++++++++++++++++++++++++++++++++++++++++++++++++++++ *
* Sub cell: nmos1v_CDNS_765518135323                        *
* +++++++++++++++++++++++++++++++++++++++++++++++++++++++++ *
.subckt nmos1v_CDNS_765518135323 1 2 3
** N=3 EP=3 FDC=1
M0 3 2 1 1 g45n1svt L=4.5e-08 W=1.2e-07 AD=1.92e-14 AS=1.68e-14 PD=5.6e-07 PS=5.2e-07 fw=1.2e-07 sa=1.4e-07 sb=3.45e-07 sca=3.69959 scb=0.00013007 scc=4.39142e-09 $X=0 $Y=0 $dt=0
.ends nmos1v_CDNS_765518135323

* +++++++++++++++++++++++++++++++++++++++++++++++++++++++++ *
* Sub cell: pmos1v_CDNS_765518135324                        *
* +++++++++++++++++++++++++++++++++++++++++++++++++++++++++ *
.subckt pmos1v_CDNS_765518135324 1 2 3 4
*.DEVICECLIMB
** N=4 EP=4 FDC=0
.ends pmos1v_CDNS_765518135324

* +++++++++++++++++++++++++++++++++++++++++++++++++++++++++ *
* Sub cell: pmos1v_CDNS_765518135325                        *
* +++++++++++++++++++++++++++++++++++++++++++++++++++++++++ *
.subckt pmos1v_CDNS_765518135325 1 2 3 4
*.DEVICECLIMB
** N=4 EP=4 FDC=0
.ends pmos1v_CDNS_765518135325

* +++++++++++++++++++++++++++++++++++++++++++++++++++++++++ *
* Sub cell: pmos1v_CDNS_765518135326                        *
* +++++++++++++++++++++++++++++++++++++++++++++++++++++++++ *
.subckt pmos1v_CDNS_765518135326 1 2 3 4 5
*.DEVICECLIMB
** N=5 EP=5 FDC=0
.ends pmos1v_CDNS_765518135326

* +++++++++++++++++++++++++++++++++++++++++++++++++++++++++ *
* Sub cell: nmos1v_CDNS_765518135327                        *
* +++++++++++++++++++++++++++++++++++++++++++++++++++++++++ *
.subckt nmos1v_CDNS_765518135327 1 2 3 4
*.DEVICECLIMB
** N=4 EP=4 FDC=0
.ends nmos1v_CDNS_765518135327

* +++++++++++++++++++++++++++++++++++++++++++++++++++++++++ *
* Sub cell: nmos1v_CDNS_765518135328                        *
* +++++++++++++++++++++++++++++++++++++++++++++++++++++++++ *
.subckt nmos1v_CDNS_765518135328 1 2 3 4
*.DEVICECLIMB
** N=4 EP=4 FDC=0
.ends nmos1v_CDNS_765518135328

* +++++++++++++++++++++++++++++++++++++++++++++++++++++++++ *
* Sub cell: nmos1v_CDNS_765518135329                        *
* +++++++++++++++++++++++++++++++++++++++++++++++++++++++++ *
.subckt nmos1v_CDNS_765518135329 1 2 3 4
** N=4 EP=4 FDC=1
M0 2 1 3 4 g45n1svt L=4.5e-08 W=1.2e-07 AD=1.92e-14 AS=7.2e-15 PD=5.6e-07 PS=3.6e-07 fw=1.2e-07 sa=4.5e-07 sb=3.45e-07 sca=3.69959 scb=0.00013007 scc=4.39142e-09 $X=0 $Y=0 $dt=0
.ends nmos1v_CDNS_765518135329

* +++++++++++++++++++++++++++++++++++++++++++++++++++++++++ *
* Sub cell: nmos1v_CDNS_7655181353210                       *
* +++++++++++++++++++++++++++++++++++++++++++++++++++++++++ *
.subckt nmos1v_CDNS_7655181353210 1 2 3
** N=3 EP=3 FDC=1
M0 3 2 1 1 g45n1svt L=4.5e-08 W=1.2e-07 AD=7.2e-15 AS=1.92e-14 PD=3.6e-07 PS=5.6e-07 fw=1.2e-07 sa=3.45e-07 sb=4.5e-07 sca=3.69959 scb=0.00013007 scc=4.39142e-09 $X=0 $Y=0 $dt=0
.ends nmos1v_CDNS_7655181353210

* +++++++++++++++++++++++++++++++++++++++++++++++++++++++++ *
* Sub cell: pmos1v_CDNS_7655181353211                       *
* +++++++++++++++++++++++++++++++++++++++++++++++++++++++++ *
.subckt pmos1v_CDNS_7655181353211 1 2 3 4
*.DEVICECLIMB
** N=4 EP=4 FDC=0
.ends pmos1v_CDNS_7655181353211

* +++++++++++++++++++++++++++++++++++++++++++++++++++++++++ *
* Sub cell: pmos1v_CDNS_7655181353212                       *
* +++++++++++++++++++++++++++++++++++++++++++++++++++++++++ *
.subckt pmos1v_CDNS_7655181353212 1 2 3 4 5
*.DEVICECLIMB
** N=5 EP=5 FDC=0
.ends pmos1v_CDNS_7655181353212

* +++++++++++++++++++++++++++++++++++++++++++++++++++++++++ *
* Sub cell: HAdder                                          *
* +++++++++++++++++++++++++++++++++++++++++++++++++++++++++ *
.subckt HAdder sum gnd carry a b vdd 7 8 9 10
+ 11 12
*.DEVICECLIMB
** N=12 EP=12 FDC=8
X0 sum M2_M1_CDNS_765518135326 $T=2220 -7390 0 90 $X=2090 $Y=-7470
X1 sum M2_M1_CDNS_765518135326 $T=2220 -4680 0 90 $X=2090 $Y=-4760
X2 7 M2_M1_CDNS_765518135326 $T=4200 -2840 0 90 $X=4070 $Y=-2920
X3 8 M2_M1_CDNS_765518135326 $T=4570 -3920 0 90 $X=4440 $Y=-4000
X4 9 M2_M1_CDNS_765518135328 $T=1300 -5710 0 90 $X=1170 $Y=-5840
X5 9 M2_M1_CDNS_765518135328 $T=1300 -4270 0 90 $X=1170 $Y=-4400
X6 vdd vdd a 8 gnd pmos1v_CDNS_765518135320 $T=5520 -3500 0 270 $X=5320 $Y=-4010
X7 vdd vdd b 7 gnd pmos1v_CDNS_765518135320 $T=5520 -2570 0 270 $X=5320 $Y=-3080
X8 gnd gnd a 8 nmos1v_CDNS_765518135321 $T=1570 -3500 0 270 $X=1010 $Y=-4010
X9 gnd gnd b 7 nmos1v_CDNS_765518135321 $T=1580 -2570 0 270 $X=1020 $Y=-3080
X10 8 M2_M1_CDNS_7655181353243 $T=2340 -4370 0 90 $X=2090 $Y=-4450
X11 8 M2_M1_CDNS_7655181353243 $T=2930 -6480 0 90 $X=2680 $Y=-6560
X12 8 M2_M1_CDNS_7655181353243 $T=2950 -5710 0 90 $X=2700 $Y=-5790
X13 a M2_M1_CDNS_7655181353243 $T=3490 -4140 0 90 $X=3240 $Y=-4220
X14 a M2_M1_CDNS_7655181353243 $T=3500 -3460 0 90 $X=3250 $Y=-3540
X15 10 M2_M1_CDNS_7655181353243 $T=5640 -5920 0 90 $X=5390 $Y=-6000
X16 10 M2_M1_CDNS_7655181353243 $T=5640 -5080 0 90 $X=5390 $Y=-5160
X17 10 M2_M1_CDNS_7655181353243 $T=5640 -4300 0 90 $X=5390 $Y=-4380
X18 8 M1_PO_CDNS_7655181353244 $T=2340 -4370 0 90 $X=2090 $Y=-4470
X19 8 M1_PO_CDNS_7655181353244 $T=2930 -6480 0 90 $X=2680 $Y=-6580
X20 8 M1_PO_CDNS_7655181353244 $T=2950 -5710 0 90 $X=2700 $Y=-5810
X21 a M1_PO_CDNS_7655181353244 $T=3490 -4140 0 90 $X=3240 $Y=-4240
X22 a M1_PO_CDNS_7655181353244 $T=3500 -3460 0 90 $X=3250 $Y=-3560
X23 a M2_M1_CDNS_7655181353245 $T=3500 -4810 0 0 $X=3250 $Y=-4940
X24 a M2_M1_CDNS_7655181353245 $T=3500 -1930 0 0 $X=3250 $Y=-2060
X25 7 M2_M1_CDNS_7655181353245 $T=4210 -6730 0 0 $X=3960 $Y=-6860
X26 7 M2_M1_CDNS_7655181353245 $T=4210 -5370 0 0 $X=3960 $Y=-5500
X27 8 M2_M1_CDNS_7655181353245 $T=4540 -5740 0 0 $X=4290 $Y=-5870
X28 b M2_M1_CDNS_7655181353245 $T=4960 -4960 0 0 $X=4710 $Y=-5090
X29 b M2_M1_CDNS_7655181353245 $T=4960 -2500 0 0 $X=4710 $Y=-2630
X30 a M1_PO_CDNS_7655181353246 $T=3500 -4810 0 0 $X=3260 $Y=-4910
X31 7 M1_PO_CDNS_7655181353246 $T=4210 -6730 0 0 $X=3970 $Y=-6830
X32 7 M1_PO_CDNS_7655181353246 $T=4210 -5370 0 0 $X=3970 $Y=-5470
X33 8 M1_PO_CDNS_7655181353246 $T=4540 -5740 0 0 $X=4300 $Y=-5840
X34 b M1_PO_CDNS_7655181353246 $T=4960 -4960 0 0 $X=4720 $Y=-5060
X35 b M1_PO_CDNS_7655181353246 $T=4960 -2500 0 0 $X=4720 $Y=-2600
X36 sum b 10 gnd vdd pmos1v_CDNS_765518135322 $T=5520 -4930 1 90 $X=5320 $Y=-5170
X37 gnd 7 carry nmos1v_CDNS_765518135323 $T=1570 -6890 1 90 $X=1370 $Y=-7310
X38 10 vdd 7 gnd pmos1v_CDNS_765518135324 $T=5520 -5340 1 90 $X=5320 $Y=-5700
X39 vdd 8 11 gnd pmos1v_CDNS_765518135325 $T=5520 -6590 0 270 $X=5320 $Y=-6880
X40 carry 7 11 gnd vdd pmos1v_CDNS_765518135326 $T=5520 -6800 0 270 $X=5320 $Y=-7310
X41 gnd carry 8 gnd nmos1v_CDNS_765518135327 $T=1570 -6390 0 270 $X=1370 $Y=-6840
X42 9 sum 8 gnd nmos1v_CDNS_765518135327 $T=1570 -4430 0 270 $X=1370 $Y=-4880
X43 9 7 gnd gnd nmos1v_CDNS_765518135328 $T=1570 -5460 0 270 $X=1370 $Y=-5970
X44 a sum 12 gnd nmos1v_CDNS_765518135329 $T=1570 -4930 1 90 $X=1370 $Y=-5130
X45 gnd b 12 nmos1v_CDNS_7655181353210 $T=1570 -5140 1 90 $X=1370 $Y=-5500
X46 10 8 vdd gnd pmos1v_CDNS_7655181353211 $T=5520 -5660 0 270 $X=5320 $Y=-6170
X47 10 a sum gnd vdd pmos1v_CDNS_7655181353212 $T=5520 -4430 0 270 $X=5320 $Y=-4760
M0 gnd 8 carry gnd g45n1svt L=4.5e-08 W=1.2e-07 AD=1.68e-14 AS=1.92e-14 PD=5.2e-07 PS=5.6e-07 fw=1.2e-07 sa=3.45e-07 sb=1.4e-07 sca=3.69959 scb=0.00013007 scc=4.39142e-09 $X=1570 $Y=-6480 $dt=0
M1 gnd 7 9 gnd g45n1svt L=4.5e-08 W=1.2e-07 AD=1.92e-14 AS=1.68e-14 PD=5.6e-07 PS=5.2e-07 fw=1.2e-07 sa=1.4e-07 sb=6.55e-07 sca=3.69959 scb=0.00013007 scc=4.39142e-09 $X=1570 $Y=-5550 $dt=0
M2 9 8 sum gnd g45n1svt L=4.5e-08 W=1.2e-07 AD=1.68e-14 AS=1.92e-14 PD=5.2e-07 PS=5.6e-07 fw=1.2e-07 sa=6.55e-07 sb=1.4e-07 sca=3.69959 scb=0.00013007 scc=4.39142e-09 $X=1570 $Y=-4520 $dt=0
M3 gnd a 8 gnd g45n1svt L=4.5e-08 W=1.2e-07 AD=1.68e-14 AS=1.68e-14 PD=5.2e-07 PS=5.2e-07 fw=1.2e-07 sa=1.4e-07 sb=1.4e-07 sca=3.69959 scb=0.00013007 scc=4.39142e-09 $X=1570 $Y=-3590 $dt=0
M4 gnd b 7 gnd g45n1svt L=4.5e-08 W=1.2e-07 AD=1.68e-14 AS=1.68e-14 PD=5.2e-07 PS=5.2e-07 fw=1.2e-07 sa=1.4e-07 sb=1.4e-07 sca=3.69959 scb=0.00013007 scc=4.39142e-09 $X=1580 $Y=-2660 $dt=0
.ends HAdder

* +++++++++++++++++++++++++++++++++++++++++++++++++++++++++ *
* Sub cell: nmos1v_CDNS_7655181353213                       *
* +++++++++++++++++++++++++++++++++++++++++++++++++++++++++ *
.subckt nmos1v_CDNS_7655181353213 1 2 3
*.DEVICECLIMB
** N=3 EP=3 FDC=0
.ends nmos1v_CDNS_7655181353213

* +++++++++++++++++++++++++++++++++++++++++++++++++++++++++ *
* Sub cell: pmos1v_CDNS_7655181353214                       *
* +++++++++++++++++++++++++++++++++++++++++++++++++++++++++ *
.subckt pmos1v_CDNS_7655181353214 1 2 3 4
*.DEVICECLIMB
** N=4 EP=4 FDC=0
.ends pmos1v_CDNS_7655181353214

* +++++++++++++++++++++++++++++++++++++++++++++++++++++++++ *
* Sub cell: nmos1v_CDNS_7655181353215                       *
* +++++++++++++++++++++++++++++++++++++++++++++++++++++++++ *
.subckt nmos1v_CDNS_7655181353215 1 2 3
*.DEVICECLIMB
** N=3 EP=3 FDC=0
.ends nmos1v_CDNS_7655181353215

* +++++++++++++++++++++++++++++++++++++++++++++++++++++++++ *
* Sub cell: pmos1v_CDNS_7655181353216                       *
* +++++++++++++++++++++++++++++++++++++++++++++++++++++++++ *
.subckt pmos1v_CDNS_7655181353216 1 2 3 4
*.DEVICECLIMB
** N=4 EP=4 FDC=0
.ends pmos1v_CDNS_7655181353216

* +++++++++++++++++++++++++++++++++++++++++++++++++++++++++ *
* Sub cell: pmos1v_CDNS_7655181353217                       *
* +++++++++++++++++++++++++++++++++++++++++++++++++++++++++ *
.subckt pmos1v_CDNS_7655181353217 1 2 3 4
*.DEVICECLIMB
** N=4 EP=4 FDC=0
.ends pmos1v_CDNS_7655181353217

* +++++++++++++++++++++++++++++++++++++++++++++++++++++++++ *
* Sub cell: nmos1v_CDNS_7655181353218                       *
* +++++++++++++++++++++++++++++++++++++++++++++++++++++++++ *
.subckt nmos1v_CDNS_7655181353218 1 2 3 4
*.DEVICECLIMB
** N=4 EP=4 FDC=0
.ends nmos1v_CDNS_7655181353218

* +++++++++++++++++++++++++++++++++++++++++++++++++++++++++ *
* Sub cell: AND                                             *
* +++++++++++++++++++++++++++++++++++++++++++++++++++++++++ *
.subckt AND b a Vdd gnd Vout 6 7
*.DEVICECLIMB
** N=7 EP=7 FDC=0
X0 Vout M3_M2_CDNS_765518135325 $T=5170 -2000 0 0 $X=5090 $Y=-2250
X1 b M2_M1_CDNS_765518135326 $T=1510 -2070 0 0 $X=1430 $Y=-2200
X2 b M2_M1_CDNS_765518135326 $T=3010 -2070 0 0 $X=2930 $Y=-2200
X3 Vout M2_M1_CDNS_7655181353229 $T=5170 -2000 0 0 $X=5090 $Y=-2250
X4 a M1_PO_CDNS_7655181353241 $T=1870 -1670 0 0 $X=1770 $Y=-1790
X5 b M1_PO_CDNS_7655181353241 $T=2510 -2070 0 0 $X=2410 $Y=-2190
X6 6 M1_PO_CDNS_7655181353241 $T=4500 -2020 0 0 $X=4400 $Y=-2140
X7 gnd Vout 6 nmos1v_CDNS_7655181353213 $T=4560 -2770 0 0 $X=3980 $Y=-2970
X8 Vdd Vout 6 gnd pmos1v_CDNS_7655181353214 $T=4560 -1510 0 0 $X=3880 $Y=-1710
X9 gnd b 7 nmos1v_CDNS_7655181353215 $T=2230 -2760 1 180 $X=1940 $Y=-2960
X10 Vdd a 6 gnd pmos1v_CDNS_7655181353216 $T=1930 -1320 0 0 $X=1250 $Y=-1520
X11 Vdd 6 b gnd pmos1v_CDNS_7655181353217 $T=2430 -1320 1 180 $X=1980 $Y=-1520
X12 6 a 7 gnd nmos1v_CDNS_7655181353218 $T=2020 -2760 1 180 $X=1510 $Y=-2960
.ends AND

* +++++++++++++++++++++++++++++++++++++++++++++++++++++++++ *
* Sub cell: MASCO__Y1                                       *
* +++++++++++++++++++++++++++++++++++++++++++++++++++++++++ *
.subckt MASCO__Y1 1 2 3 4 5 6 7 8
** N=8 EP=8 FDC=0
X0 1 M2_M1_CDNS_7655181353229 $T=80 250 0 0 $X=0 $Y=0
X1 2 M2_M1_CDNS_7655181353229 $T=480 250 0 0 $X=400 $Y=0
X2 3 M2_M1_CDNS_7655181353229 $T=880 250 0 0 $X=800 $Y=0
X3 4 M2_M1_CDNS_7655181353229 $T=1280 250 0 0 $X=1200 $Y=0
X4 5 M2_M1_CDNS_7655181353229 $T=1680 250 0 0 $X=1600 $Y=0
X5 6 M2_M1_CDNS_7655181353229 $T=2080 250 0 0 $X=2000 $Y=0
X6 7 M2_M1_CDNS_7655181353229 $T=2480 250 0 0 $X=2400 $Y=0
X7 8 M2_M1_CDNS_7655181353229 $T=2880 250 0 0 $X=2800 $Y=0
.ends MASCO__Y1

* +++++++++++++++++++++++++++++++++++++++++++++++++++++++++ *
* Sub cell: MASCO__Y2                                       *
* +++++++++++++++++++++++++++++++++++++++++++++++++++++++++ *
.subckt MASCO__Y2 1 2 3 4 5 6 7 8
** N=8 EP=8 FDC=0
X0 1 M3_M2_CDNS_765518135325 $T=80 250 0 0 $X=0 $Y=0
X1 2 M3_M2_CDNS_765518135325 $T=480 250 0 0 $X=400 $Y=0
X2 3 M3_M2_CDNS_765518135325 $T=880 250 0 0 $X=800 $Y=0
X3 4 M3_M2_CDNS_765518135325 $T=1280 250 0 0 $X=1200 $Y=0
X4 5 M3_M2_CDNS_765518135325 $T=1680 250 0 0 $X=1600 $Y=0
X5 6 M3_M2_CDNS_765518135325 $T=2080 250 0 0 $X=2000 $Y=0
X6 7 M3_M2_CDNS_765518135325 $T=2480 250 0 0 $X=2400 $Y=0
X7 8 M3_M2_CDNS_765518135325 $T=2880 250 0 0 $X=2800 $Y=0
.ends MASCO__Y2

* +++++++++++++++++++++++++++++++++++++++++++++++++++++++++ *
* Sub cell: WallaceMultiplier                               *
* +++++++++++++++++++++++++++++++++++++++++++++++++++++++++ *
.subckt WallaceMultiplier b<0> a<7> a<6> a<5> a<4> a<3> a<2> a<1> a<0> vdd
+ gnd p05 p04 p03 p02 p01 p00 b<1> p07 p06
+ p14 p13 p12 p11 p10 b<2> p17 p16 p15 p24
+ p23 p22 p21 p20 b<3> p27 p26 p25 p34 p33
+ p32 p31 p30 b<4> p37 p36 p35 p44 p43 p42
+ p41 p40 b<5> p47 p46 p45 p54 p53 p52 p51
+ p50 b<6> p57 p56 p55 p64 p63 p62 p61 p60
+ b<7> p67 p66 p65 p74 p73 p72 p71 p70 p77
+ p76 p75
** N=210 EP=82 FDC=384
X0 b<0> M3_M2_CDNS_765518135325 $T=3380 31230 0 0 $X=3300 $Y=30980
X1 b<0> M3_M2_CDNS_765518135325 $T=3380 33140 0 0 $X=3300 $Y=32890
X2 b<0> M3_M2_CDNS_765518135325 $T=3380 34600 0 0 $X=3300 $Y=34350
X3 b<0> M3_M2_CDNS_765518135325 $T=3380 37680 0 0 $X=3300 $Y=37430
X4 b<0> M3_M2_CDNS_765518135325 $T=3380 39140 0 0 $X=3300 $Y=38890
X5 b<0> M3_M2_CDNS_765518135325 $T=3380 42220 0 0 $X=3300 $Y=41970
X6 b<0> M3_M2_CDNS_765518135325 $T=3380 43680 0 0 $X=3300 $Y=43430
X7 b<0> M3_M2_CDNS_765518135325 $T=3380 46750 0 0 $X=3300 $Y=46500
X8 b<0> M3_M2_CDNS_765518135325 $T=3380 48210 0 0 $X=3300 $Y=47960
X9 b<1> M3_M2_CDNS_765518135325 $T=8570 31230 0 0 $X=8490 $Y=30980
X10 b<1> M3_M2_CDNS_765518135325 $T=8570 33140 0 0 $X=8490 $Y=32890
X11 b<1> M3_M2_CDNS_765518135325 $T=8570 34600 0 0 $X=8490 $Y=34350
X12 b<1> M3_M2_CDNS_765518135325 $T=8570 37680 0 0 $X=8490 $Y=37430
X13 b<1> M3_M2_CDNS_765518135325 $T=8570 39140 0 0 $X=8490 $Y=38890
X14 b<1> M3_M2_CDNS_765518135325 $T=8570 42220 0 0 $X=8490 $Y=41970
X15 b<1> M3_M2_CDNS_765518135325 $T=8570 43680 0 0 $X=8490 $Y=43430
X16 b<1> M3_M2_CDNS_765518135325 $T=8570 46750 0 0 $X=8490 $Y=46500
X17 b<1> M3_M2_CDNS_765518135325 $T=8570 48210 0 0 $X=8490 $Y=47960
X18 b<2> M3_M2_CDNS_765518135325 $T=13600 31060 0 0 $X=13520 $Y=30810
X19 b<2> M3_M2_CDNS_765518135325 $T=13600 33140 0 0 $X=13520 $Y=32890
X20 b<2> M3_M2_CDNS_765518135325 $T=13600 34600 0 0 $X=13520 $Y=34350
X21 b<2> M3_M2_CDNS_765518135325 $T=13600 37680 0 0 $X=13520 $Y=37430
X22 b<2> M3_M2_CDNS_765518135325 $T=13600 39140 0 0 $X=13520 $Y=38890
X23 b<2> M3_M2_CDNS_765518135325 $T=13600 42220 0 0 $X=13520 $Y=41970
X24 b<2> M3_M2_CDNS_765518135325 $T=13600 43680 0 0 $X=13520 $Y=43430
X25 b<2> M3_M2_CDNS_765518135325 $T=13600 46750 0 0 $X=13520 $Y=46500
X26 b<2> M3_M2_CDNS_765518135325 $T=13600 48210 0 0 $X=13520 $Y=47960
X27 b<3> M3_M2_CDNS_765518135325 $T=18750 31230 0 0 $X=18670 $Y=30980
X28 b<3> M3_M2_CDNS_765518135325 $T=18750 33140 0 0 $X=18670 $Y=32890
X29 b<3> M3_M2_CDNS_765518135325 $T=18750 34600 0 0 $X=18670 $Y=34350
X30 b<3> M3_M2_CDNS_765518135325 $T=18750 37680 0 0 $X=18670 $Y=37430
X31 b<3> M3_M2_CDNS_765518135325 $T=18750 39140 0 0 $X=18670 $Y=38890
X32 b<3> M3_M2_CDNS_765518135325 $T=18750 42220 0 0 $X=18670 $Y=41970
X33 b<3> M3_M2_CDNS_765518135325 $T=18750 43680 0 0 $X=18670 $Y=43430
X34 b<3> M3_M2_CDNS_765518135325 $T=18750 46750 0 0 $X=18670 $Y=46500
X35 b<3> M3_M2_CDNS_765518135325 $T=18750 48210 0 0 $X=18670 $Y=47960
X36 b<4> M3_M2_CDNS_765518135325 $T=23840 31230 0 0 $X=23760 $Y=30980
X37 b<4> M3_M2_CDNS_765518135325 $T=23840 33140 0 0 $X=23760 $Y=32890
X38 b<4> M3_M2_CDNS_765518135325 $T=23840 34600 0 0 $X=23760 $Y=34350
X39 b<4> M3_M2_CDNS_765518135325 $T=23840 37680 0 0 $X=23760 $Y=37430
X40 b<4> M3_M2_CDNS_765518135325 $T=23840 39140 0 0 $X=23760 $Y=38890
X41 b<4> M3_M2_CDNS_765518135325 $T=23840 42220 0 0 $X=23760 $Y=41970
X42 b<4> M3_M2_CDNS_765518135325 $T=23840 43680 0 0 $X=23760 $Y=43430
X43 b<4> M3_M2_CDNS_765518135325 $T=23840 46750 0 0 $X=23760 $Y=46500
X44 b<4> M3_M2_CDNS_765518135325 $T=23840 48210 0 0 $X=23760 $Y=47960
X45 b<5> M3_M2_CDNS_765518135325 $T=28730 31230 0 0 $X=28650 $Y=30980
X46 b<5> M3_M2_CDNS_765518135325 $T=28730 33140 0 0 $X=28650 $Y=32890
X47 b<5> M3_M2_CDNS_765518135325 $T=28730 34600 0 0 $X=28650 $Y=34350
X48 b<5> M3_M2_CDNS_765518135325 $T=28730 37680 0 0 $X=28650 $Y=37430
X49 b<5> M3_M2_CDNS_765518135325 $T=28730 39140 0 0 $X=28650 $Y=38890
X50 b<5> M3_M2_CDNS_765518135325 $T=28730 42220 0 0 $X=28650 $Y=41970
X51 b<5> M3_M2_CDNS_765518135325 $T=28730 43680 0 0 $X=28650 $Y=43430
X52 b<5> M3_M2_CDNS_765518135325 $T=28730 46750 0 0 $X=28650 $Y=46500
X53 b<5> M3_M2_CDNS_765518135325 $T=28730 48210 0 0 $X=28650 $Y=47960
X54 b<6> M3_M2_CDNS_765518135325 $T=33970 31230 0 0 $X=33890 $Y=30980
X55 b<6> M3_M2_CDNS_765518135325 $T=33970 33140 0 0 $X=33890 $Y=32890
X56 b<6> M3_M2_CDNS_765518135325 $T=33970 34600 0 0 $X=33890 $Y=34350
X57 b<6> M3_M2_CDNS_765518135325 $T=33970 37680 0 0 $X=33890 $Y=37430
X58 b<6> M3_M2_CDNS_765518135325 $T=33970 39140 0 0 $X=33890 $Y=38890
X59 b<6> M3_M2_CDNS_765518135325 $T=33970 42220 0 0 $X=33890 $Y=41970
X60 b<6> M3_M2_CDNS_765518135325 $T=33970 43680 0 0 $X=33890 $Y=43430
X61 b<6> M3_M2_CDNS_765518135325 $T=33970 46750 0 0 $X=33890 $Y=46500
X62 b<6> M3_M2_CDNS_765518135325 $T=33970 48210 0 0 $X=33890 $Y=47960
X63 b<7> M3_M2_CDNS_765518135325 $T=39020 31230 0 0 $X=38940 $Y=30980
X64 b<7> M3_M2_CDNS_765518135325 $T=39020 33140 0 0 $X=38940 $Y=32890