* +++++++++++++++++++++++++++++++++++++++++++++++++++++++++ *
* CDL Netlist:                                              *
*                                                           *
* Cell Name  : WallaceMultiplier                            *
* Netlisted  : Thu Dec  4 17:53:32 2025                     *
* PVS Version: 23.11-s036 Wed Jan 17 18:11:41 PST 2024      *
* +++++++++++++++++++++++++++++++++++++++++++++++++++++++++ *
*.LDD
*.DEVTMPLT 0 MN(g45n1svt) _nmos1v ndiff_conn(D) poly_conn(G) ndiff_conn(S) psubstrate(B)
*.DEVTMPLT 1 MP(g45p1svt) _pmos1v pdiff_conn(D) poly_conn(G) pdiff_conn(S) nwell_conn(B)

* +++++++++++++++++++++++++++++++++++++++++++++++++++++++++ *
* Sub cell: M2_M1_CDNS_764888808060                         *
* +++++++++++++++++++++++++++++++++++++++++++++++++++++++++ *
.subckt M2_M1_CDNS_764888808060 1
** N=1 EP=1 FDC=0
.ends M2_M1_CDNS_764888808060

* +++++++++++++++++++++++++++++++++++++++++++++++++++++++++ *
* Sub cell: M3_M2_CDNS_764888808061                         *
* +++++++++++++++++++++++++++++++++++++++++++++++++++++++++ *
.subckt M3_M2_CDNS_764888808061 1
** N=1 EP=1 FDC=0
.ends M3_M2_CDNS_764888808061

* +++++++++++++++++++++++++++++++++++++++++++++++++++++++++ *
* Sub cell: M2_M1_CDNS_764888808062                         *
* +++++++++++++++++++++++++++++++++++++++++++++++++++++++++ *
.subckt M2_M1_CDNS_764888808062 1
** N=1 EP=1 FDC=0
.ends M2_M1_CDNS_764888808062

* +++++++++++++++++++++++++++++++++++++++++++++++++++++++++ *
* Sub cell: M1_PO_CDNS_764888808063                         *
* +++++++++++++++++++++++++++++++++++++++++++++++++++++++++ *
.subckt M1_PO_CDNS_764888808063 1
** N=1 EP=1 FDC=0
.ends M1_PO_CDNS_764888808063

* +++++++++++++++++++++++++++++++++++++++++++++++++++++++++ *
* Sub cell: nmos1v_CDNS_764888808060                        *
* +++++++++++++++++++++++++++++++++++++++++++++++++++++++++ *
.subckt nmos1v_CDNS_764888808060 1 2 3
*.DEVICECLIMB
** N=3 EP=3 FDC=0
.ends nmos1v_CDNS_764888808060

* +++++++++++++++++++++++++++++++++++++++++++++++++++++++++ *
* Sub cell: pmos1v_CDNS_764888808061                        *
* +++++++++++++++++++++++++++++++++++++++++++++++++++++++++ *
.subckt pmos1v_CDNS_764888808061 1 2 3 4
*.DEVICECLIMB
** N=4 EP=4 FDC=0
.ends pmos1v_CDNS_764888808061

* +++++++++++++++++++++++++++++++++++++++++++++++++++++++++ *
* Sub cell: nmos1v_CDNS_764888808062                        *
* +++++++++++++++++++++++++++++++++++++++++++++++++++++++++ *
.subckt nmos1v_CDNS_764888808062 1 2 3
*.DEVICECLIMB
** N=3 EP=3 FDC=0
.ends nmos1v_CDNS_764888808062

* +++++++++++++++++++++++++++++++++++++++++++++++++++++++++ *
* Sub cell: pmos1v_CDNS_764888808063                        *
* +++++++++++++++++++++++++++++++++++++++++++++++++++++++++ *
.subckt pmos1v_CDNS_764888808063 1 2 3 4
*.DEVICECLIMB
** N=4 EP=4 FDC=0
.ends pmos1v_CDNS_764888808063

* +++++++++++++++++++++++++++++++++++++++++++++++++++++++++ *
* Sub cell: pmos1v_CDNS_764888808064                        *
* +++++++++++++++++++++++++++++++++++++++++++++++++++++++++ *
.subckt pmos1v_CDNS_764888808064 1 2 3 4
*.DEVICECLIMB
** N=4 EP=4 FDC=0
.ends pmos1v_CDNS_764888808064

* +++++++++++++++++++++++++++++++++++++++++++++++++++++++++ *
* Sub cell: nmos1v_CDNS_764888808065                        *
* +++++++++++++++++++++++++++++++++++++++++++++++++++++++++ *
.subckt nmos1v_CDNS_764888808065 1 2 3 4
*.DEVICECLIMB
** N=4 EP=4 FDC=0
.ends nmos1v_CDNS_764888808065

* +++++++++++++++++++++++++++++++++++++++++++++++++++++++++ *
* Sub cell: AND                                             *
* +++++++++++++++++++++++++++++++++++++++++++++++++++++++++ *
.subckt AND 1 2 3 4 5 6 7
*.DEVICECLIMB
** N=7 EP=7 FDC=0
X0 1 M2_M1_CDNS_764888808060 $T=1510 -2070 0 0 $X=1430 $Y=-2200
X1 1 M2_M1_CDNS_764888808060 $T=3010 -2070 0 0 $X=2930 $Y=-2200
X2 5 M3_M2_CDNS_764888808061 $T=5170 -2000 0 0 $X=5090 $Y=-2250
X3 5 M2_M1_CDNS_764888808062 $T=5170 -2000 0 0 $X=5090 $Y=-2250
X4 2 M1_PO_CDNS_764888808063 $T=1870 -1670 0 0 $X=1770 $Y=-1790
X5 1 M1_PO_CDNS_764888808063 $T=2510 -2070 0 0 $X=2410 $Y=-2190
X6 6 M1_PO_CDNS_764888808063 $T=4500 -2020 0 0 $X=4400 $Y=-2140
X7 4 5 6 nmos1v_CDNS_764888808060 $T=4560 -2770 0 0 $X=3980 $Y=-2970
X8 3 5 6 4 pmos1v_CDNS_764888808061 $T=4560 -1510 0 0 $X=3880 $Y=-1710
X9 4 1 7 nmos1v_CDNS_764888808062 $T=2230 -2760 1 180 $X=1940 $Y=-2960
X10 3 2 6 4 pmos1v_CDNS_764888808063 $T=1930 -1320 0 0 $X=1250 $Y=-1520
X11 3 6 1 4 pmos1v_CDNS_764888808064 $T=2430 -1320 1 180 $X=1980 $Y=-1520
X12 6 2 7 4 nmos1v_CDNS_764888808065 $T=2020 -2760 1 180 $X=1510 $Y=-2960
.ends AND

* +++++++++++++++++++++++++++++++++++++++++++++++++++++++++ *
* Sub cell: MASCO__Y1                                       *
* +++++++++++++++++++++++++++++++++++++++++++++++++++++++++ *
.subckt MASCO__Y1 1 2 3 4 5 6 7 8
** N=8 EP=8 FDC=0
X0 1 M2_M1_CDNS_764888808062 $T=80 250 1 0 $X=0 $Y=0
X1 2 M2_M1_CDNS_764888808062 $T=480 250 1 0 $X=400 $Y=0
X2 3 M2_M1_CDNS_764888808062 $T=880 250 1 0 $X=800 $Y=0
X3 4 M2_M1_CDNS_764888808062 $T=1280 250 1 0 $X=1200 $Y=0
X4 5 M2_M1_CDNS_764888808062 $T=1680 250 1 0 $X=1600 $Y=0
X5 6 M2_M1_CDNS_764888808062 $T=2080 250 1 0 $X=2000 $Y=0
X6 7 M2_M1_CDNS_764888808062 $T=2480 250 1 0 $X=2400 $Y=0
X7 8 M2_M1_CDNS_764888808062 $T=2880 250 1 0 $X=2800 $Y=0
.ends MASCO__Y1

* +++++++++++++++++++++++++++++++++++++++++++++++++++++++++ *
* Sub cell: MASCO__Y2                                       *
* +++++++++++++++++++++++++++++++++++++++++++++++++++++++++ *
.subckt MASCO__Y2 1 2 3 4 5 6 7 8
** N=8 EP=8 FDC=0
X0 1 M3_M2_CDNS_764888808061 $T=80 250 1 0 $X=0 $Y=0
X1 2 M3_M2_CDNS_764888808061 $T=480 250 1 0 $X=400 $Y=0
X2 3 M3_M2_CDNS_764888808061 $T=880 250 1 0 $X=800 $Y=0
X3 4 M3_M2_CDNS_764888808061 $T=1280 250 1 0 $X=1200 $Y=0
X4 5 M3_M2_CDNS_764888808061 $T=1680 250 1 0 $X=1600 $Y=0
X5 6 M3_M2_CDNS_764888808061 $T=2080 250 1 0 $X=2000 $Y=0
X6 7 M3_M2_CDNS_764888808061 $T=2480 250 1 0 $X=2400 $Y=0
X7 8 M3_M2_CDNS_764888808061 $T=2880 250 1 0 $X=2800 $Y=0
.ends MASCO__Y2

* +++++++++++++++++++++++++++++++++++++++++++++++++++++++++ *
* Sub cell: WallaceMultiplier                               *
* +++++++++++++++++++++++++++++++++++++++++++++++++++++++++ *
.subckt WallaceMultiplier 8 7 6 5 4 3 2 1 9 10
+ 11 12 13 14 15 16 18 26 25 24
+ 23 22 21 20 19 34 33 32 31 30
+ 29 28 27 42 41 40 39 38 37 36
+ 35 50 49 48 47 46 45 44 43 58
+ 57 56 55 54 53 52 51 66 65 64
+ 63 62 61 60 59 74 73 72 71 70
+ 69 68 67 82 81 80 79 78 77 76
+ 75 17
** N=210 EP=82 FDC=384
X0 1 M2_M1_CDNS_764888808060 $T=2220 31930 0 0 $X=2140 $Y=31800
X1 2 M2_M1_CDNS_764888808060 $T=2220 35820 0 0 $X=2140 $Y=35690
X2 3 M2_M1_CDNS_764888808060 $T=2220 36470 0 0 $X=2140 $Y=36340
X3 4 M2_M1_CDNS_764888808060 $T=2220 40360 0 0 $X=2140 $Y=40230
X4 5 M2_M1_CDNS_764888808060 $T=2220 41010 0 0 $X=2140 $Y=40880
X5 6 M2_M1_CDNS_764888808060 $T=2220 44900 0 0 $X=2140 $Y=44770
X6 7 M2_M1_CDNS_764888808060 $T=2220 45540 0 0 $X=2140 $Y=45410
X7 8 M2_M1_CDNS_764888808060 $T=2220 49430 0 0 $X=2140 $Y=49300
X8 1 M2_M1_CDNS_764888808060 $T=3380 32500 1 0 $X=3300 $Y=32370
X9 2 M2_M1_CDNS_764888808060 $T=3380 35240 0 0 $X=3300 $Y=35110
X10 3 M2_M1_CDNS_764888808060 $T=3380 37040 1 0 $X=3300 $Y=36910
X11 4 M2_M1_CDNS_764888808060 $T=3380 39780 0 0 $X=3300 $Y=39650
X12 5 M2_M1_CDNS_764888808060 $T=3380 41580 1 0 $X=3300 $Y=41450
X13 6 M2_M1_CDNS_764888808060 $T=3380 44320 0 0 $X=3300 $Y=44190
X14 7 M2_M1_CDNS_764888808060 $T=3380 46120 1 0 $X=3300 $Y=45990
X15 8 M2_M1_CDNS_764888808060 $T=3380 48860 0 0 $X=3300 $Y=48730
X16 1 M2_M1_CDNS_764888808060 $T=8590 32500 1 0 $X=8510 $Y=32370
X17 2 M2_M1_CDNS_764888808060 $T=8590 35240 0 0 $X=8510 $Y=35110
X18 3 M2_M1_CDNS_764888808060 $T=8590 37040 1 0 $X=8510 $Y=36910
X19 4 M2_M1_CDNS_764888808060 $T=8590 39780 0 0 $X=8510 $Y=39650
X20 5 M2_M1_CDNS_764888808060 $T=8590 41580 1 0 $X=8510 $Y=41450
X21 6 M2_M1_CDNS_764888808060 $T=8590 44320 0 0 $X=8510 $Y=44190
X22 7 M2_M1_CDNS_764888808060 $T=8590 46120 1 0 $X=8510 $Y=45990
X23 8 M2_M1_CDNS_764888808060 $T=8590 48860 0 0 $X=8510 $Y=48730
X24 1 M2_M1_CDNS_764888808060 $T=13610 32500 1 0 $X=13530 $Y=32370
X25 2 M2_M1_CDNS_764888808060 $T=13610 35240 0 0 $X=13530 $Y=35110
X26 3 M2_M1_CDNS_764888808060 $T=13610 37040 1 0 $X=13530 $Y=36910
X27 4 M2_M1_CDNS_764888808060 $T=13610 39780 0 0 $X=13530 $Y=39650
X28 5 M2_M1_CDNS_764888808060 $T=13610 41580 1 0 $X=13530 $Y=41450
X29 6 M2_M1_CDNS_764888808060 $T=13610 44320 0 0 $X=13530 $Y=44190
X30 7 M2_M1_CDNS_764888808060 $T=13610 46120 1 0 $X=13530 $Y=45990
X31 8 M2_M1_CDNS_764888808060 $T=13610 48860 0 0 $X=13530 $Y=48730
X32 1 M2_M1_CDNS_764888808060 $T=18740 32500 1 0 $X=18660 $Y=32370
X33 2 M2_M1_CDNS_764888808060 $T=18740 35240 0 0 $X=18660 $Y=35110
X34 3 M2_M1_CDNS_764888808060 $T=18740 37040 1 0 $X=18660 $Y=36910
X35 4 M2_M1_CDNS_764888808060 $T=18740 39780 0 0 $X=18660 $Y=39650
X36 5 M2_M1_CDNS_764888808060 $T=18740 41580 1 0 $X=18660 $Y=41450
X37 6 M2_M1_CDNS_764888808060 $T=18740 44320 0 0 $X=18660 $Y=44190
X38 7 M2_M1_CDNS_764888808060 $T=18740 46120 1 0 $X=18660 $Y=45990
X39 8 M2_M1_CDNS_764888808060 $T=18740 48860 0 0 $X=18660 $Y=48730
X40 1 M2_M1_CDNS_764888808060 $T=23810 32500 1 0 $X=23730 $Y=32370
X41 2 M2_M1_CDNS_764888808060 $T=23810 35240 0 0 $X=23730 $Y=35110
X42 3 M2_M1_CDNS_764888808060 $T=23810 37040 1 0 $X=23730 $Y=36910
X43 4 M2_M1_CDNS_764888808060 $T=23810 39780 0 0 $X=23730 $Y=39650
X44 5 M2_M1_CDNS_764888808060 $T=23810 41580 1 0 $X=23730 $Y=41450
X45 6 M2_M1_CDNS_764888808060 $T=23810 44320 0 0 $X=23730 $Y=44190
X46 7 M2_M1_CDNS_764888808060 $T=23810 46120 1 0 $X=23730 $Y=45990
X47 8 M2_M1_CDNS_764888808060 $T=23810 48860 0 0 $X=23730 $Y=48730
X48 1 M2_M1_CDNS_764888808060 $T=28690 32500 1 0 $X=28610 $Y=32370
X49 2 M2_M1_CDNS_764888808060 $T=28690 35240 0 0 $X=28610 $Y=35110
X50 3 M2_M1_CDNS_764888808060 $T=28690 37040 1 0 $X=28610 $Y=36910
X51 4 M2_M1_CDNS_764888808060 $T=28690 39780 0 0 $X=28610 $Y=39650
X52 5 M2_M1_CDNS_764888808060 $T=28690 41580 1 0 $X=28610 $Y=41450
X53 6 M2_M1_CDNS_764888808060 $T=28690 44320 0 0 $X=28610 $Y=44190
X54 7 M2_M1_CDNS_764888808060 $T=28690 46120 1 0 $X=28610 $Y=45990
X55 8 M2_M1_CDNS_764888808060 $T=28690 48860 0 0 $X=28610 $Y=48730
X56 1 M2_M1_CDNS_764888808060 $T=33890 32500 1 0 $X=33810 $Y=32370
X57 2 M2_M1_CDNS_764888808060 $T=33890 35240 0 0 $X=33810 $Y=35110
X58 3 M2_M1_CDNS_764888808060 $T=33890 37040 1 0 $X=33810 $Y=36910
X59 4 M2_M1_CDNS_764888808060 $T=33890 39780 0 0 $X=33810 $Y=39650
X60 5 M2_M1_CDNS_764888808060 $T=33890 41580 1 0 $X=33810 $Y=41450
X61 6 M2_M1_CDNS_764888808060 $T=33890 44320 0 0 $X=33810 $Y=44190
X62 7 M2_M1_CDNS_764888808060 $T=33890 46120 1 0 $X=33810 $Y=45990
X63 8 M2_M1_CDNS_764888808060 $T=33890 48860 0 0 $X=33810 $Y=48730
X64 1 M2_M1_CDNS_764888808060 $T=38920 32500 1 0 $X=38840 $Y=32370
X65 2 M2_M1_CDNS_764888808060 $T=38920 35240 0 0 $X=38840 $Y=35110
X66 3 M2_M1_CDNS_764888808060 $T=38920 37040 1 0 $X=38840 $Y=36910
X67 4 M2_M1_CDNS_764888808060 $T=38920 39780 0 0 $X=38840 $Y=39650
X68 5 M2_M1_CDNS_764888808060 $T=38920 41580 1 0 $X=38840 $Y=41450
X69 6 M2_M1_CDNS_764888808060 $T=38920 44320 0 0 $X=38840 $Y=44190
X70 7 M2_M1_CDNS_764888808060 $T=38920 46120 1 0 $X=38840 $Y=45990
X71 8 M2_M1_CDNS_764888808060 $T=38920 48860 0 0 $X=38840 $Y=48730
X72 9 M3_M2_CDNS_764888808061 $T=3380 31230 1 0 $X=3300 $Y=30980
X73 9 M3_M2_CDNS_764888808061 $T=3380 33140 0 0 $X=3300 $Y=32890
X74 9 M3_M2_CDNS_764888808061 $T=3380 34600 0 0 $X=3300 $Y=34350
X75 9 M3_M2_CDNS_764888808061 $T=3380 37680 0 0 $X=3300 $Y=37430
X76 9 M3_M2_CDNS_764888808061 $T=3380 39140 0 0 $X=3300 $Y=38890
X77 9 M3_M2_CDNS_764888808061 $T=3380 42220 0 0 $X=3300 $Y=41970
X78 9 M3_M2_CDNS_764888808061 $T=3380 43680 0 0 $X=3300 $Y=43430
X79 9 M3_M2_CDNS_764888808061 $T=3380 46750 0 0 $X=3300 $Y=46500
X80 9 M3_M2_CDNS_764888808061 $T=3380 48210 0 0 $X=3300 $Y=47960
X81 10 M3_M2_CDNS_764888808061 $T=8570 31230 1 0 $X=8490 $Y=30980
X82 10 M3_M2_CDNS_764888808061 $T=8570 33140 0 0 $X=8490 $Y=32890
X83 10 M3_M2_CDNS_764888808061 $T=8570 34600 0 0 $X=8490 $Y=34350
X84 10 M3_M2_CDNS_764888808061 $T=8570 37680 0 0 $X=8490 $Y=37430
X85 10 M3_M2_CDNS_764888808061 $T=8570 39140 0 0 $X=8490 $Y=38890
X86 10 M3_M2_CDNS_764888808061 $T=8570 42220 0 0 $X=8490 $Y=41970
X87 10 M3_M2_CDNS_764888808061 $T=8570 43680 0 0 $X=8490 $Y=43430
X88 10 M3_M2_CDNS_764888808061 $T=8570 46750 0 0 $X=8490 $Y=46500
X89 10 M3_M2_CDNS_764888808061 $T=8570 48210 0 0 $X=8490 $Y=47960
X90 11 M3_M2_CDNS_764888808061 $T=13600 31060 1 0 $X=13520 $Y=30810
X91 11 M3_M2_CDNS_764888808061 $T=13600 33140 0 0 $X=13520 $Y=32890
X92 11 M3_M2_CDNS_764888808061 $T=13600 34600 0 0 $X=13520 $Y=34350
X93 11 M3_M2_CDNS_764888808061 $T=13600 37680 0 0 $X=13520 $Y=37430
X94 11 M3_M2_CDNS_764888808061 $T=13600 39140 0 0 $X=13520 $Y=38890
X95 11 M3_M2_CDNS_764888808061 $T=13600 42220 0 0 $X=13520 $Y=41970
X96 11 M3_M2_CDNS_764888808061 $T=13600 43680 0 0 $X=13520 $Y=43430
X97 11 M3_M2_CDNS_764888808061 $T=13600 46750 0 0 $X=13520 $Y=46500
X98 11 M3_M2_CDNS_764888808061 $T=13600 48210 0 0 $X=13520 $Y=47960
X99 12 M3_M2_CDNS_764888808061 $T=18750 31230 1 0 $X=18670 $Y=30980
X100 12 M3_M2_CDNS_764888808061 $T=18750 33140 0 0 $X=18670 $Y=32890
X101 12 M3_M2_CDNS_764888808061 $T=18750 34600 0 0 $X=18670 $Y=34350
X102 12 M3_M2_CDNS_764888808061 $T=18750 37680 0 0 $X=18670 $Y=37430
X103 12 M3_M2_CDNS_764888808061 $T=18750 39140 0 0 $X=18670 $Y=38890
X104 12 M3_M2_CDNS_764888808061 $T=18750 42220 0 0 $X=18670 $Y=41970
X105 12 M3_M2_CDNS_764888808061 $T=18750 43680 0 0 $X=18670 $Y=43430
X106 12 M3_M2_CDNS_764888808061 $T=18750 46750 0 0 $X=18670 $Y=46500
X107 12 M3_M2_CDNS_764888808061 $T=18750 48210 0 0 $X=18670 $Y=47960
X108 13 M3_M2_CDNS_764888808061 $T=23840 31230 1 0 $X=23760 $Y=30980
X109 13 M3_M2_CDNS_764888808061 $T=23840 33140 0 0 $X=23760 $Y=32890
X110 13 M3_M2_CDNS_764888808061 $T=23840 34600 0 0 $X=23760 $Y=34350
X111 13 M3_M2_CDNS_764888808061 $T=23840 37680 0 0 $X=23760 $Y=37430
X112 13 M3_M2_CDNS_764888808061 $T=23840 39140 0 0 $X=23760 $Y=38890
X113 13 M3_M2_CDNS_764888808061 $T=23840 42220 0 0 $X=23760 $Y=41970
X114 13 M3_M2_CDNS_764888808061 $T=23840 43680 0 0 $X=23760 $Y=43430
X115 13 M3_M2_CDNS_764888808061 $T=23840 46750 0 0 $X=23760 $Y=46500
X116 13 M3_M2_CDNS_764888808061 $T=23840 48210 0 0 $X=23760 $Y=47960
X117 14 M3_M2_CDNS_764888808061 $T=28730 31230 1 0 $X=28650 $Y=30980
X118 14 M3_M2_CDNS_764888808061 $T=28730 33140 0 0 $X=28650 $Y=32890
X119 14 M3_M2_CDNS_764888808061 $T=28730 34600 0 0 $X=28650 $Y=34350
X120 14 M3_M2_CDNS_764888808061 $T=28730 37680 0 0 $X=28650 $Y=37430
X121 14 M3_M2_CDNS_764888808061 $T=28730 39140 0 0 $X=28650 $Y=38890
X122 14 M3_M2_CDNS_764888808061 $T=28730 42220 0 0 $X=28650 $Y=41970
X123 14 M3_M2_CDNS_764888808061 $T=28730 43680 0 0 $X=28650 $Y=43430
X124 14 M3_M2_CDNS_764888808061 $T=28730 46750 0 0 $X=28650 $Y=46500
X125 14 M3_M2_CDNS_764888808061 $T=28730 48210 0 0 $X=28650 $Y=47960
X126 15 M3_M2_CDNS_764888808061 $T=33970 31230 1 0 $X=33890 $Y=30980
X127 15 M3_M2_CDNS_764888808061 $T=33970 33140 0 0 $X=33890 $Y=32890
X128 15 M3_M2_CDNS_764888808061 $T=33970 34600 0 0 $X=33890 $Y=34350
X129 15 M3_M2_CDNS_764888808061 $T=33970 37680 0 0 $X=33890 $Y=37430
X130 15 M3_M2_CDNS_764888808061 $T=33970 39140 0 0 $X=33890 $Y=38890
X131 15 M3_M2_CDNS_764888808061 $T=33970 42220 0 0 $X=33890 $Y=41970
X132 15 M3_M2_CDNS_764888808061 $T=33970 43680 0 0 $X=33890 $Y=43430
X133 15 M3_M2_CDNS_764888808061 $T=33970 46750 0 0 $X=33890 $Y=46500
X134 15 M3_M2_CDNS_764888808061 $T=33970 48210 0 0 $X=33890 $Y=47960
X135 16 M3_M2_CDNS_764888808061 $T=39020 31230 1 0 $X=38940 $Y=30980
X136 16 M3_M2_CDNS_764888808061 $T=39020 33140 0 0 $X=38940 $Y=32890
X137 16 M3_M2_CDNS_764888808061 $T=39020 34600 0 0 $X=38940 $Y=34350
X138 16 M3_M2_CDNS_764888808061 $T=39020 37680 0 0 $X=38940 $Y=37430
X139 16 M3_M2_CDNS_764888808061 $T=39020 39140 0 0 $X=38940 $Y=38890
X140 16 M3_M2_CDNS_764888808061 $T=39020 42220 0 0 $X=38940 $Y=41970
X141 16 M3_M2_CDNS_764888808061 $T=39020 43680 0 0 $X=38940 $Y=43430
X142 16 M3_M2_CDNS_764888808061 $T=39020 46750 0 0 $X=38940 $Y=46500
X143 16 M3_M2_CDNS_764888808061 $T=39020 48210 0 0 $X=38940 $Y=47960
X144 9 M2_M1_CDNS_764888808062 $T=3380 31230 1 0 $X=3300 $Y=30980
X145 9 M2_M1_CDNS_764888808062 $T=3380 33140 0 0 $X=3300 $Y=32890
X146 9 M2_M1_CDNS_764888808062 $T=3380 34600 0 0 $X=3300 $Y=34350
X147 9 M2_M1_CDNS_764888808062 $T=3380 37680 0 0 $X=3300 $Y=37430
X148 9 M2_M1_CDNS_764888808062 $T=3380 39140 0 0 $X=3300 $Y=38890
X149 9 M2_M1_CDNS_764888808062 $T=3380 42220 0 0 $X=3300 $Y=41970
X150 9 M2_M1_CDNS_764888808062 $T=3380 43680 0 0 $X=3300 $Y=43430
X151 9 M2_M1_CDNS_764888808062 $T=3380 46750 0 0 $X=3300 $Y=46500
X152 9 M2_M1_CDNS_764888808062 $T=3380 48210 0 0 $X=3300 $Y=47960
X153 10 M2_M1_CDNS_764888808062 $T=8570 31230 1 0 $X=8490 $Y=30980
X154 10 M2_M1_CDNS_764888808062 $T=8570 33140 0 0 $X=8490 $Y=32890
X155 10 M2_M1_CDNS_764888808062 $T=8570 34600 0 0 $X=8490 $Y=34350
X156 10 M2_M1_CDNS_764888808062 $T=8570 37680 0 0 $X=8490 $Y=37430
X157 10 M2_M1_CDNS_764888808062 $T=8570 39140 0 0 $X=8490 $Y=38890
X158 10 M2_M1_CDNS_764888808062 $T=8570 42220 0 0 $X=8490 $Y=41970
X159 10 M2_M1_CDNS_764888808062 $T=8570 43680 0 0 $X=8490 $Y=43430
X160 10 M2_M1_CDNS_764888808062 $T=8570 46750 0 0 $X=8490 $Y=46500
X161 10 M2_M1_CDNS_764888808062 $T=8570 48210 0 0 $X=8490 $Y=47960
X162 11 M2_M1_CDNS_764888808062 $T=13600 31060 1 0 $X=13520 $Y=30810
X163 11 M2_M1_CDNS_764888808062 $T=13600 33140 0 0 $X=13520 $Y=32890
X164 11 M2_M1_CDNS_764888808062 $T=13600 34600 0 0 $X=13520 $Y=34350
X165 11 M2_M1_CDNS_764888808062 $T=13600 37680 0 0 $X=13520 $Y=37430
X166 11 M2_M1_CDNS_764888808062 $T=13600 39140 0 0 $X=13520 $Y=38890
X167 11 M2_M1_CDNS_764888808062 $T=13600 42220 0 0 $X=13520 $Y=41970
X168 11 M2_M1_CDNS_764888808062 $T=13600 43680 0 0 $X=13520 $Y=43430
X169 11 M2_M1_CDNS_764888808062 $T=13600 46750 0 0 $X=13520 $Y=46500
X170 11 M2_M1_CDNS_764888808062 $T=13600 48210 0 0 $X=13520 $Y=47960
X171 12 M2_M1_CDNS_764888808062 $T=18750 31230 1 0 $X=18670 $Y=30980
X172 12 M2_M1_CDNS_764888808062 $T=18750 33140 0 0 $X=18670 $Y=32890
X173 12 M2_M1_CDNS_764888808062 $T=18750 34600 0 0 $X=18670 $Y=34350
X174 12 M2_M1_CDNS_764888808062 $T=18750 37680 0 0 $X=18670 $Y=37430
X175 12 M2_M1_CDNS_764888808062 $T=18750 39140 0 0 $X=18670 $Y=38890
X176 12 M2_M1_CDNS_764888808062 $T=18750 42220 0 0 $X=18670 $Y=41970
X177 12 M2_M1_CDNS_764888808062 $T=18750 43680 0 0 $X=18670 $Y=43430
X178 12 M2_M1_CDNS_764888808062 $T=18750 46750 0 0 $X=18670 $Y=46500
X179 12 M2_M1_CDNS_764888808062 $T=18750 48210 0 0 $X=18670 $Y=47960
X180 13 M2_M1_CDNS_764888808062 $T=23840 31230 1 0 $X=23760 $Y=30980
X181 13 M2_M1_CDNS_764888808062 $T=23840 33140 0 0 $X=23760 $Y=32890
X182 13 M2_M1_CDNS_764888808062 $T=23840 34600 0 0 $X=23760 $Y=34350
X183 13 M2_M1_CDNS_764888808062 $T=23840 37680 0 0 $X=23760 $Y=37430
X184 13 M2_M1_CDNS_764888808062 $T=23840 39140 0 0 $X=23760 $Y=38890
X185 13 M2_M1_CDNS_764888808062 $T=23840 42220 0 0 $X=23760 $Y=41970
X186 13 M2_M1_CDNS_764888808062 $T=23840 43680 0 0 $X=23760 $Y=43430
X187 13 M2_M1_CDNS_764888808062 $T=23840 46750 0 0 $X=23760 $Y=46500
X188 13 M2_M1_CDNS_764888808062 $T=23840 48210 0 0 $X=23760 $Y=47960
X189 14 M2_M1_CDNS_764888808062 $T=28730 31230 1 0 $X=28650 $Y=30980
X190 14 M2_M1_CDNS_764888808062 $T=28730 33140 0 0 $X=28650 $Y=32890
X191 14 M2_M1_CDNS_764888808062 $T=28730 34600 0 0 $X=28650 $Y=34350
X192 14 M2_M1_CDNS_764888808062 $T=28730 37680 0 0 $X=28650 $Y=37430
X193 14 M2_M1_CDNS_764888808062 $T=28730 39140 0 0 $X=28650 $Y=38890
X194 14 M2_M1_CDNS_764888808062 $T=28730 42220 0 0 $X=28650 $Y=41970
X195 14 M2_M1_CDNS_764888808062 $T=28730 43680 0 0 $X=28650 $Y=43430
X196 14 M2_M1_CDNS_764888808062 $T=28730 46750 0 0 $X=28650 $Y=46500
X197 14 M2_M1_CDNS_764888808062 $T=28730 48210 0 0 $X=28650 $Y=47960
X198 15 M2_M1_CDNS_764888808062 $T=33970 31230 1 0 $X=33890 $Y=30980
X199 15 M2_M1_CDNS_764888808062 $T=33970 33140 0 0 $X=33890 $Y=32890
X200 15 M2_M1_CDNS_764888808062 $T=33970 34600 0 0 $X=33890 $Y=34350
X201 15 M2_M1_CDNS_764888808062 $T=33970 37680 0 0 $X=33890 $Y=37430
X202 15 M2_M1_CDNS_764888808062 $T=33970 39140 0 0 $X=33890 $Y=38890
X203 15 M2_M1_CDNS_764888808062 $T=33970 42220 0 0 $X=33890 $Y=41970
X204 15 M2_M1_CDNS_764888808062 $T=33970 43680 0 0 $X=33890 $Y=43430
X205 15 M2_M1_CDNS_764888808062 $T=33970 46750 0 0 $X=33890 $Y=46500
X206 15 M2_M1_CDNS_764888808062 $T=33970 48210 0 0 $X=33890 $Y=47960
X207 16 M2_M1_CDNS_764888808062 $T=39020 31230 1 0 $X=38940 $Y=30980
X208 16 M2_M1_CDNS_764888808062 $T=39020 33140 0 0 $X=38940 $Y=32890
X209 16 M2_M1_CDNS_764888808062 $T=39020 34600 0 0 $X=38940 $Y=34350
X210 16 M2_M1_CDNS_764888808062 $T=39020 37680 0 0 $X=38940 $Y=37430
X211 16 M2_M1_CDNS_764888808062 $T=39020 39140 0 0 $X=38940 $Y=38890
X212 16 M2_M1_CDNS_764888808062 $T=39020 42220 0 0 $X=38940 $Y=41970
X213 16 M2_M1_CDNS_764888808062 $T=39020 43680 0 0 $X=38940 $Y=43430
X214 16 M2_M1_CDNS_764888808062 $T=39020 46750 0 0 $X=38940 $Y=46500
X215 16 M2_M1_CDNS_764888808062 $T=39020 48210 0 0 $X=38940 $Y=47960
X216 9 1 17 18 19 83 147 AND $T=2730 30830 1 0 $X=3800 $Y=31540
X217 9 2 17 18 20 84 148 AND $T=2730 36910 0 0 $X=3800 $Y=33810
X218 9 3 17 18 21 85 149 AND $T=2730 35370 1 0 $X=3800 $Y=36080
X219 9 4 17 18 22 86 150 AND $T=2730 41450 0 0 $X=3800 $Y=38350
X220 9 5 17 18 23 87 151 AND $T=2730 39910 1 0 $X=3800 $Y=40620
X221 9 6 17 18 24 88 152 AND $T=2730 45990 0 0 $X=3800 $Y=42890
X222 9 7 17 18 25 89 153 AND $T=2730 44450 1 0 $X=3800 $Y=45160
X223 9 8 17 18 26 90 154 AND $T=2730 50530 0 0 $X=3800 $Y=47430
X224 10 1 17 18 27 91 155 AND $T=7940 30820 1 0 $X=9010 $Y=31530
X225 10 2 17 18 28 92 156 AND $T=7940 36900 0 0 $X=9010 $Y=33800
X226 10 3 17 18 29 93 157 AND $T=7940 35370 1 0 $X=9010 $Y=36080
X227 10 4 17 18 30 94 158 AND $T=7940 41450 0 0 $X=9010 $Y=38350
X228 10 5 17 18 31 95 159 AND $T=7940 39910 1 0 $X=9010 $Y=40620
X229 10 6 17 18 32 96 160 AND $T=7940 45990 0 0 $X=9010 $Y=42890
X230 10 7 17 18 33 97 161 AND $T=7940 44450 1 0 $X=9010 $Y=45160
X231 10 8 17 18 34 98 162 AND $T=7940 50530 0 0 $X=9010 $Y=47430
X232 11 1 17 18 35 99 163 AND $T=12940 30820 1 0 $X=14010 $Y=31530
X233 11 2 17 18 36 100 164 AND $T=12940 36900 0 0 $X=14010 $Y=33800
X234 11 3 17 18 37 101 165 AND $T=12940 35370 1 0 $X=14010 $Y=36080
X235 11 4 17 18 38 102 166 AND $T=12940 41450 0 0 $X=14010 $Y=38350
X236 11 5 17 18 39 103 167 AND $T=12940 39910 1 0 $X=14010 $Y=40620
X237 11 6 17 18 40 104 168 AND $T=12940 45990 0 0 $X=14010 $Y=42890
X238 11 7 17 18 41 105 169 AND $T=12940 44450 1 0 $X=14010 $Y=45160
X239 11 8 17 18 42 106 170 AND $T=12940 50530 0 0 $X=14010 $Y=47430
X240 12 1 17 18 43 107 171 AND $T=18070 30820 1 0 $X=19140 $Y=31530
X241 12 2 17 18 44 108 172 AND $T=18070 36900 0 0 $X=19140 $Y=33800
X242 12 3 17 18 45 109 173 AND $T=18070 35370 1 0 $X=19140 $Y=36080
X243 12 4 17 18 46 110 174 AND $T=18070 41450 0 0 $X=19140 $Y=38350
X244 12 5 17 18 47 111 175 AND $T=18070 39910 1 0 $X=19140 $Y=40620
X245 12 6 17 18 48 112 176 AND $T=18070 45990 0 0 $X=19140 $Y=42890
X246 12 7 17 18 49 113 177 AND $T=18070 44450 1 0 $X=19140 $Y=45160
X247 12 8 17 18 50 114 178 AND $T=18070 50530 0 0 $X=19140 $Y=47430
X248 13 1 17 18 51 115 179 AND $T=23140 30820 1 0 $X=24210 $Y=31530
X249 13 2 17 18 52 116 180 AND $T=23140 36900 0 0 $X=24210 $Y=33800
X250 13 3 17 18 53 117 181 AND $T=23140 35370 1 0 $X=24210 $Y=36080
X251 13 4 17 18 54 118 182 AND $T=23140 41450 0 0 $X=24210 $Y=38350
X252 13 5 17 18 55 119 183 AND $T=23140 39910 1 0 $X=24210 $Y=40620
X253 13 6 17 18 56 120 184 AND $T=23140 45990 0 0 $X=24210 $Y=42890
X254 13 7 17 18 57 121 185 AND $T=23140 44450 1 0 $X=24210 $Y=45160
X255 13 8 17 18 58 122 186 AND $T=23140 50530 0 0 $X=24210 $Y=47430
X256 14 1 17 18 59 123 187 AND $T=28010 30820 1 0 $X=29080 $Y=31530
X257 14 2 17 18 60 124 188 AND $T=28010 36900 0 0 $X=29080 $Y=33800
X258 14 3 17 18 61 125 189 AND $T=28010 35370 1 0 $X=29080 $Y=36080
X259 14 4 17 18 62 126 190 AND $T=28010 41450 0 0 $X=29080 $Y=38350
X260 14 5 17 18 63 127 191 AND $T=28010 39910 1 0 $X=29080 $Y=40620
X261 14 6 17 18 64 128 192 AND $T=28010 45990 0 0 $X=29080 $Y=42890
X262 14 7 17 18 65 129 193 AND $T=28010 44450 1 0 $X=29080 $Y=45160
X263 14 8 17 18 66 130 194 AND $T=28010 50530 0 0 $X=29080 $Y=47430
X264 15 1 17 18 67 131 195 AND $T=33230 30830 1 0 $X=34300 $Y=31540
X265 15 2 17 18 68 132 196 AND $T=33230 36900 0 0 $X=34300 $Y=33800
X266 15 3 17 18 69 133 197 AND $T=33230 35370 1 0 $X=34300 $Y=36080
X267 15 4 17 18 70 134 198 AND $T=33230 41450 0 0 $X=34300 $Y=38350
X268 15 5 17 18 71 135 199 AND $T=33230 39910 1 0 $X=34300 $Y=40620
X269 15 6 17 18 72 136 200 AND $T=33230 45990 0 0 $X=34300 $Y=42890
X270 15 7 17 18 73 137 201 AND $T=33230 44450 1 0 $X=34300 $Y=45160
X271 15 8 17 18 74 138 202 AND $T=33230 50530 0 0 $X=34300 $Y=47430
X272 16 1 17 18 75 139 203 AND $T=38250 30830 1 0 $X=39320 $Y=31540
X273 16 2 17 18 76 140 204 AND $T=38250 36910 0 0 $X=39320 $Y=33810
X274 16 3 17 18 77 141 205 AND $T=38250 35370 1 0 $X=39320 $Y=36080
X275 16 4 17 18 78 142 206 AND $T=38250 41450 0 0 $X=39320 $Y=38350
X276 16 5 17 18 79 143 207 AND $T=38250 39910 1 0 $X=39320 $Y=40620
X277 16 6 17 18 80 144 208 AND $T=38250 45990 0 0 $X=39320 $Y=42890
X278 16 7 17 18 81 145 209 AND $T=38250 44450 1 0 $X=39320 $Y=45160
X279 16 8 17 18 82 146 210 AND $T=38250 50530 0 0 $X=39320 $Y=47430
X280 26 25 24 23 22 21 20 19 MASCO__Y1 $T=4320 31030 0 0 $X=4320 $Y=31030
X281 34 33 32 31 30 29 28 27 MASCO__Y1 $T=9530 31030 0 0 $X=9530 $Y=31030
X282 42 41 40 39 38 37 36 35 MASCO__Y1 $T=14515 31030 0 0 $X=14515 $Y=31030
X283 50 49 48 47 46 45 44 43 MASCO__Y1 $T=19655 31030 0 0 $X=19655 $Y=31030
X284 58 57 56 55 54 53 52 51 MASCO__Y1 $T=24735 31030 0 0 $X=24735 $Y=31030
X285 66 65 64 63 62 61 60 59 MASCO__Y1 $T=29595 31030 0 0 $X=29595 $Y=31030
X286 74 73 72 71 70 69 68 67 MASCO__Y1 $T=34815 31030 0 0 $X=34815 $Y=31030
X287 82 81 80 79 78 77 76 75 MASCO__Y1 $T=39840 31030 0 0 $X=39840 $Y=31030
X288 26 25 24 23 22 21 20 19 MASCO__Y2 $T=4320 31030 0 0 $X=4320 $Y=31030
X289 34 33 32 31 30 29 28 27 MASCO__Y2 $T=9530 31030 0 0 $X=9530 $Y=31030
X290 42 41 40 39 38 37 36 35 MASCO__Y2 $T=14515 31030 0 0 $X=14515 $Y=31030
X291 50 49 48 47 46 45 44 43 MASCO__Y2 $T=19655 31030 0 0 $X=19655 $Y=31030
X292 58 57 56 55 54 53 52 51 MASCO__Y2 $T=24735 31030 0 0 $X=24735 $Y=31030
X293 66 65 64 63 62 61 60 59 MASCO__Y2 $T=29595 31030 0 0 $X=29595 $Y=31030
X294 74 73 72 71 70 69 68 67 MASCO__Y2 $T=34815 31030 0 0 $X=34815 $Y=31030
X295 82 81 80 79 78 77 76 75 MASCO__Y2 $T=39840 31030 0 0 $X=39840 $Y=31030
M0 147 1 83 18 g45n1svt L=4.5e-08 W=1.2e-07 AD=7.2e-15 AS=1.68e-14 PD=3.6e-07 PS=5.2e-07 fw=1.2e-07 sa=1.4e-07 sb=2.45e-07 sca=7.11756 scb=0.00354063 scc=2.49777e-05 $X=4660 $Y=33350 $dt=0
M1 148 2 84 18 g45n1svt L=4.5e-08 W=1.2e-07 AD=7.2e-15 AS=1.68e-14 PD=3.6e-07 PS=5.2e-07 fw=1.2e-07 sa=1.4e-07 sb=2.45e-07 sca=7.11756 scb=0.00354063 scc=2.49777e-05 $X=4660 $Y=34150 $dt=0
M2 149 3 85 18 g45n1svt L=4.5e-08 W=1.2e-07 AD=7.2e-15 AS=1.68e-14 PD=3.6e-07 PS=5.2e-07 fw=1.2e-07 sa=1.4e-07 sb=2.45e-07 sca=7.11756 scb=0.00354063 scc=2.49777e-05 $X=4660 $Y=37890 $dt=0
M3 150 4 86 18 g45n1svt L=4.5e-08 W=1.2e-07 AD=7.2e-15 AS=1.68e-14 PD=3.6e-07 PS=5.2e-07 fw=1.2e-07 sa=1.4e-07 sb=2.45e-07 sca=7.11756 scb=0.00354063 scc=2.49777e-05 $X=4660 $Y=38690 $dt=0
M4 151 5 87 18 g45n1svt L=4.5e-08 W=1.2e-07 AD=7.2e-15 AS=1.68e-14 PD=3.6e-07 PS=5.2e-07 fw=1.2e-07 sa=1.4e-07 sb=2.45e-07 sca=7.11756 scb=0.00354063 scc=2.49777e-05 $X=4660 $Y=42430 $dt=0
M5 152 6 88 18 g45n1svt L=4.5e-08 W=1.2e-07 AD=7.2e-15 AS=1.68e-14 PD=3.6e-07 PS=5.2e-07 fw=1.2e-07 sa=1.4e-07 sb=2.45e-07 sca=7.11756 scb=0.00354063 scc=2.49777e-05 $X=4660 $Y=43230 $dt=0
M6 153 7 89 18 g45n1svt L=4.5e-08 W=1.2e-07 AD=7.2e-15 AS=1.68e-14 PD=3.6e-07 PS=5.2e-07 fw=1.2e-07 sa=1.4e-07 sb=2.45e-07 sca=7.11756 scb=0.00354063 scc=2.49777e-05 $X=4660 $Y=46970 $dt=0
M7 154 8 90 18 g45n1svt L=4.5e-08 W=1.2e-07 AD=7.2e-15 AS=1.68e-14 PD=3.6e-07 PS=5.2e-07 fw=1.2e-07 sa=1.4e-07 sb=2.45e-07 sca=7.11756 scb=0.00354063 scc=2.49777e-05 $X=4660 $Y=47770 $dt=0
M8 18 9 147 18 g45n1svt L=4.5e-08 W=1.2e-07 AD=1.68e-14 AS=7.2e-15 PD=5.2e-07 PS=3.6e-07 fw=1.2e-07 sa=2.45e-07 sb=1.4e-07 sca=7.11756 scb=0.00354063 scc=2.49777e-05 $X=4870 $Y=33350 $dt=0
M9 18 9 148 18 g45n1svt L=4.5e-08 W=1.2e-07 AD=1.68e-14 AS=7.2e-15 PD=5.2e-07 PS=3.6e-07 fw=1.2e-07 sa=2.45e-07 sb=1.4e-07 sca=7.11756 scb=0.00354063 scc=2.49777e-05 $X=4870 $Y=34150 $dt=0
M10 18 9 149 18 g45n1svt L=4.5e-08 W=1.2e-07 AD=1.68e-14 AS=7.2e-15 PD=5.2e-07 PS=3.6e-07 fw=1.2e-07 sa=2.45e-07 sb=1.4e-07 sca=7.11756 scb=0.00354063 scc=2.49777e-05 $X=4870 $Y=37890 $dt=0
M11 18 9 150 18 g45n1svt L=4.5e-08 W=1.2e-07 AD=1.68e-14 AS=7.2e-15 PD=5.2e-07 PS=3.6e-07 fw=1.2e-07 sa=2.45e-07 sb=1.4e-07 sca=7.11756 scb=0.00354063 scc=2.49777e-05 $X=4870 $Y=38690 $dt=0
M12 18 9 151 18 g45n1svt L=4.5e-08 W=1.2e-07 AD=1.68e-14 AS=7.2e-15 PD=5.2e-07 PS=3.6e-07 fw=1.2e-07 sa=2.45e-07 sb=1.4e-07 sca=7.11756 scb=0.00354063 scc=2.49777e-05 $X=4870 $Y=42430 $dt=0
M13 18 9 152 18 g45n1svt L=4.5e-08 W=1.2e-07 AD=1.68e-14 AS=7.2e-15 PD=5.2e-07 PS=3.6e-07 fw=1.2e-07 sa=2.45e-07 sb=1.4e-07 sca=7.11756 scb=0.00354063 scc=2.49777e-05 $X=4870 $Y=43230 $dt=0
M14 18 9 153 18 g45n1svt L=4.5e-08 W=1.2e-07 AD=1.68e-14 AS=7.2e-15 PD=5.2e-07 PS=3.6e-07 fw=1.2e-07 sa=2.45e-07 sb=1.4e-07 sca=7.11756 scb=0.00354063 scc=2.49777e-05 $X=4870 $Y=46970 $dt=0
M15 18 9 154 18 g45n1svt L=4.5e-08 W=1.2e-07 AD=1.68e-14 AS=7.2e-15 PD=5.2e-07 PS=3.6e-07 fw=1.2e-07 sa=2.45e-07 sb=1.4e-07 sca=7.11756 scb=0.00354063 scc=2.49777e-05 $X=4870 $Y=47770 $dt=0
M16 19 83 18 18 g45n1svt L=4.5e-08 W=1.2e-07 AD=1.68e-14 AS=1.68e-14 PD=5.2e-07 PS=5.2e-07 fw=1.2e-07 sa=1.4e-07 sb=1.4e-07 sca=7.05259 scb=0.00341442 scc=2.28378e-05 $X=7290 $Y=33360 $dt=0
M17 20 84 18 18 g45n1svt L=4.5e-08 W=1.2e-07 AD=1.68e-14 AS=1.68e-14 PD=5.2e-07 PS=5.2e-07 fw=1.2e-07 sa=1.4e-07 sb=1.4e-07 sca=7.05259 scb=0.00341442 scc=2.28378e-05 $X=7290 $Y=34140 $dt=0