* +++++++++++++++++++++++++++++++++++++++++++++++++++++++++ *
* CDL Netlist:                                              *
*                                                           *
* Cell Name  : MAC                                          *
* Netlisted  : Sat Dec 13 12:39:58 2025                     *
* PVS Version: 23.11-s036 Wed Jan 17 18:11:41 PST 2024      *
* +++++++++++++++++++++++++++++++++++++++++++++++++++++++++ *
*.LDD
*.DEVTMPLT 0 MN(g45n1svt) _nmos1v ndiff_conn(D) poly_conn(G) ndiff_conn(S) psubstrate(B)
*.DEVTMPLT 1 MP(g45p1svt) _pmos1v pdiff_conn(D) poly_conn(G) pdiff_conn(S) nwell_conn(B)

* +++++++++++++++++++++++++++++++++++++++++++++++++++++++++ *
* Sub cell: M3_M2_CDNS_765647593020                         *
* +++++++++++++++++++++++++++++++++++++++++++++++++++++++++ *
.subckt M3_M2_CDNS_765647593020 1
** N=1 EP=1 FDC=0
.ends M3_M2_CDNS_765647593020

* +++++++++++++++++++++++++++++++++++++++++++++++++++++++++ *
* Sub cell: M4_M3_CDNS_765647593021                         *
* +++++++++++++++++++++++++++++++++++++++++++++++++++++++++ *
.subckt M4_M3_CDNS_765647593021 1
** N=1 EP=1 FDC=0
.ends M4_M3_CDNS_765647593021

* +++++++++++++++++++++++++++++++++++++++++++++++++++++++++ *
* Sub cell: M5_M4_CDNS_765647593022                         *
* +++++++++++++++++++++++++++++++++++++++++++++++++++++++++ *
.subckt M5_M4_CDNS_765647593022 1
** N=1 EP=1 FDC=0
.ends M5_M4_CDNS_765647593022

* +++++++++++++++++++++++++++++++++++++++++++++++++++++++++ *
* Sub cell: M6_M5_CDNS_765647593023                         *
* +++++++++++++++++++++++++++++++++++++++++++++++++++++++++ *
.subckt M6_M5_CDNS_765647593023 1
** N=1 EP=1 FDC=0
.ends M6_M5_CDNS_765647593023

* +++++++++++++++++++++++++++++++++++++++++++++++++++++++++ *
* Sub cell: M3_M2_CDNS_765647593024                         *
* +++++++++++++++++++++++++++++++++++++++++++++++++++++++++ *
.subckt M3_M2_CDNS_765647593024 1
** N=1 EP=1 FDC=0
.ends M3_M2_CDNS_765647593024

* +++++++++++++++++++++++++++++++++++++++++++++++++++++++++ *
* Sub cell: M4_M3_CDNS_765647593025                         *
* +++++++++++++++++++++++++++++++++++++++++++++++++++++++++ *
.subckt M4_M3_CDNS_765647593025 1
** N=1 EP=1 FDC=0
.ends M4_M3_CDNS_765647593025

* +++++++++++++++++++++++++++++++++++++++++++++++++++++++++ *
* Sub cell: M3_M2_CDNS_765647593026                         *
* +++++++++++++++++++++++++++++++++++++++++++++++++++++++++ *
.subckt M3_M2_CDNS_765647593026 1
** N=1 EP=1 FDC=0
.ends M3_M2_CDNS_765647593026

* +++++++++++++++++++++++++++++++++++++++++++++++++++++++++ *
* Sub cell: M4_M3_CDNS_765647593027                         *
* +++++++++++++++++++++++++++++++++++++++++++++++++++++++++ *
.subckt M4_M3_CDNS_765647593027 1
** N=1 EP=1 FDC=0
.ends M4_M3_CDNS_765647593027

* +++++++++++++++++++++++++++++++++++++++++++++++++++++++++ *
* Sub cell: M5_M4_CDNS_765647593028                         *
* +++++++++++++++++++++++++++++++++++++++++++++++++++++++++ *
.subckt M5_M4_CDNS_765647593028 1
** N=1 EP=1 FDC=0
.ends M5_M4_CDNS_765647593028

* +++++++++++++++++++++++++++++++++++++++++++++++++++++++++ *
* Sub cell: M6_M5_CDNS_765647593029                         *
* +++++++++++++++++++++++++++++++++++++++++++++++++++++++++ *
.subckt M6_M5_CDNS_765647593029 1
** N=1 EP=1 FDC=0
.ends M6_M5_CDNS_765647593029

* +++++++++++++++++++++++++++++++++++++++++++++++++++++++++ *
* Sub cell: M2_M1_CDNS_7656475930210                        *
* +++++++++++++++++++++++++++++++++++++++++++++++++++++++++ *
.subckt M2_M1_CDNS_7656475930210 1
** N=1 EP=1 FDC=0
.ends M2_M1_CDNS_7656475930210

* +++++++++++++++++++++++++++++++++++++++++++++++++++++++++ *
* Sub cell: M2_M1_CDNS_7656475930211                        *
* +++++++++++++++++++++++++++++++++++++++++++++++++++++++++ *
.subckt M2_M1_CDNS_7656475930211 1
** N=1 EP=1 FDC=0
.ends M2_M1_CDNS_7656475930211

* +++++++++++++++++++++++++++++++++++++++++++++++++++++++++ *
* Sub cell: M2_M1_CDNS_7656475930212                        *
* +++++++++++++++++++++++++++++++++++++++++++++++++++++++++ *
.subckt M2_M1_CDNS_7656475930212 1
** N=1 EP=1 FDC=0
.ends M2_M1_CDNS_7656475930212

* +++++++++++++++++++++++++++++++++++++++++++++++++++++++++ *
* Sub cell: M1_PO_CDNS_7656475930214                        *
* +++++++++++++++++++++++++++++++++++++++++++++++++++++++++ *
.subckt M1_PO_CDNS_7656475930214 1
** N=1 EP=1 FDC=0
.ends M1_PO_CDNS_7656475930214

* +++++++++++++++++++++++++++++++++++++++++++++++++++++++++ *
* Sub cell: M1_PO_CDNS_7656475930215                        *
* +++++++++++++++++++++++++++++++++++++++++++++++++++++++++ *
.subckt M1_PO_CDNS_7656475930215 1
** N=1 EP=1 FDC=0
.ends M1_PO_CDNS_7656475930215

* +++++++++++++++++++++++++++++++++++++++++++++++++++++++++ *
* Sub cell: M2_M1_CDNS_7656475930216                        *
* +++++++++++++++++++++++++++++++++++++++++++++++++++++++++ *
.subckt M2_M1_CDNS_7656475930216 1
** N=1 EP=1 FDC=0
.ends M2_M1_CDNS_7656475930216

* +++++++++++++++++++++++++++++++++++++++++++++++++++++++++ *
* Sub cell: pmos1v_CDNS_765647593020                        *
* +++++++++++++++++++++++++++++++++++++++++++++++++++++++++ *
.subckt pmos1v_CDNS_765647593020 1 2 3 4 5
*.DEVICECLIMB
** N=5 EP=5 FDC=0
.ends pmos1v_CDNS_765647593020

* +++++++++++++++++++++++++++++++++++++++++++++++++++++++++ *
* Sub cell: nmos1v_CDNS_765647593021                        *
* +++++++++++++++++++++++++++++++++++++++++++++++++++++++++ *
.subckt nmos1v_CDNS_765647593021 1 2 3 4
** N=4 EP=4 FDC=1
M0 4 3 1 2 g45n1svt L=4.5e-08 W=1.2e-07 AD=1.68e-14 AS=1.68e-14 PD=5.2e-07 PS=5.2e-07 fw=1.2e-07 sa=1.4e-07 sb=1.4e-07 sca=3.69959 scb=0.00013007 scc=4.39142e-09 $X=0 $Y=0 $dt=0
.ends nmos1v_CDNS_765647593021

* +++++++++++++++++++++++++++++++++++++++++++++++++++++++++ *
* Sub cell: XOR                                             *
* +++++++++++++++++++++++++++++++++++++++++++++++++++++++++ *
.subckt XOR a vdd gnd f b 6 7
*.DEVICECLIMB
** N=7 EP=7 FDC=4
X0 f M3_M2_CDNS_765647593026 $T=1850 2810 0 90 $X=1600 $Y=2590
X1 f M4_M3_CDNS_765647593027 $T=1850 2810 0 90 $X=1600 $Y=2590
X2 f M5_M4_CDNS_765647593028 $T=1850 2810 0 90 $X=1600 $Y=2590
X3 f M6_M5_CDNS_765647593029 $T=1850 2810 0 90 $X=1600 $Y=2590
X4 f M2_M1_CDNS_7656475930210 $T=1850 2810 0 90 $X=1600 $Y=2590
X5 6 M2_M1_CDNS_7656475930211 $T=690 3330 0 0 $X=610 $Y=3200
X6 a M2_M1_CDNS_7656475930211 $T=1190 1490 0 0 $X=1110 $Y=1360
X7 a M2_M1_CDNS_7656475930211 $T=2520 1490 0 0 $X=2440 $Y=1360
X8 6 M2_M1_CDNS_7656475930211 $T=2550 3330 0 0 $X=2470 $Y=3200
X9 a M1_PO_CDNS_7656475930214 $T=320 1490 0 0 $X=220 $Y=1240
X10 b M1_PO_CDNS_7656475930214 $T=1540 2050 0 0 $X=1440 $Y=1800
X11 b M1_PO_CDNS_7656475930214 $T=3400 2050 0 0 $X=3300 $Y=1800
X12 7 M1_PO_CDNS_7656475930215 $T=2470 2570 0 0 $X=2370 $Y=2450
X13 a M2_M1_CDNS_7656475930216 $T=320 1490 0 0 $X=240 $Y=1240
X14 b M2_M1_CDNS_7656475930216 $T=1540 2050 0 0 $X=1460 $Y=1800
X15 b M2_M1_CDNS_7656475930216 $T=3400 2050 0 0 $X=3320 $Y=1800
X16 vdd vdd a 6 gnd pmos1v_CDNS_765647593020 $T=420 3660 0 0 $X=0 $Y=3460
X17 a vdd b f gnd pmos1v_CDNS_765647593020 $T=1350 3660 0 0 $X=930 $Y=3460
X18 6 vdd 7 f gnd pmos1v_CDNS_765647593020 $T=2370 3660 1 180 $X=1860 $Y=3460
X19 vdd vdd b 7 gnd pmos1v_CDNS_765647593020 $T=3300 3660 1 180 $X=2790 $Y=3460
X20 gnd gnd a 6 nmos1v_CDNS_765647593021 $T=420 800 0 0 $X=0 $Y=240
X21 f gnd b 6 nmos1v_CDNS_765647593021 $T=1440 800 1 180 $X=930 $Y=240
X22 f gnd 7 a nmos1v_CDNS_765647593021 $T=2280 800 0 0 $X=1860 $Y=240
X23 gnd gnd b 7 nmos1v_CDNS_765647593021 $T=3300 800 1 180 $X=2790 $Y=240
.ends XOR

* +++++++++++++++++++++++++++++++++++++++++++++++++++++++++ *
* Sub cell: M3_M2_CDNS_7656475930217                        *
* +++++++++++++++++++++++++++++++++++++++++++++++++++++++++ *
.subckt M3_M2_CDNS_7656475930217 1
** N=1 EP=1 FDC=0
.ends M3_M2_CDNS_7656475930217

* +++++++++++++++++++++++++++++++++++++++++++++++++++++++++ *
* Sub cell: M2_M1_CDNS_7656475930218                        *
* +++++++++++++++++++++++++++++++++++++++++++++++++++++++++ *
.subckt M2_M1_CDNS_7656475930218 1
** N=1 EP=1 FDC=0
.ends M2_M1_CDNS_7656475930218

* +++++++++++++++++++++++++++++++++++++++++++++++++++++++++ *
* Sub cell: nmos1v_CDNS_765647593022                        *
* +++++++++++++++++++++++++++++++++++++++++++++++++++++++++ *
.subckt nmos1v_CDNS_765647593022 1 2 3
** N=3 EP=3 FDC=1
M0 2 3 1 1 g45n1svt L=4.5e-08 W=1.2e-07 AD=1.68e-14 AS=1.68e-14 PD=5.2e-07 PS=5.2e-07 fw=1.2e-07 sa=1.4e-07 sb=1.4e-07 sca=6.70537 scb=0.00332581 scc=2.28218e-05 $X=0 $Y=0 $dt=0
.ends nmos1v_CDNS_765647593022

* +++++++++++++++++++++++++++++++++++++++++++++++++++++++++ *
* Sub cell: pmos1v_CDNS_765647593023                        *
* +++++++++++++++++++++++++++++++++++++++++++++++++++++++++ *
.subckt pmos1v_CDNS_765647593023 1 2 3 4
*.DEVICECLIMB
** N=4 EP=4 FDC=0
.ends pmos1v_CDNS_765647593023

* +++++++++++++++++++++++++++++++++++++++++++++++++++++++++ *
* Sub cell: nmos1v_CDNS_765647593024                        *
* +++++++++++++++++++++++++++++++++++++++++++++++++++++++++ *
.subckt nmos1v_CDNS_765647593024 1 2 3
** N=3 EP=3 FDC=1
M0 3 2 1 1 g45n1svt L=4.5e-08 W=1.2e-07 AD=7.2e-15 AS=1.68e-14 PD=3.6e-07 PS=5.2e-07 fw=1.2e-07 sa=1.4e-07 sb=2.45e-07 sca=6.78406 scb=0.00345708 scc=2.49632e-05 $X=0 $Y=0 $dt=0
.ends nmos1v_CDNS_765647593024

* +++++++++++++++++++++++++++++++++++++++++++++++++++++++++ *
* Sub cell: pmos1v_CDNS_765647593025                        *
* +++++++++++++++++++++++++++++++++++++++++++++++++++++++++ *
.subckt pmos1v_CDNS_765647593025 1 2 3 4
*.DEVICECLIMB
** N=4 EP=4 FDC=0
.ends pmos1v_CDNS_765647593025

* +++++++++++++++++++++++++++++++++++++++++++++++++++++++++ *
* Sub cell: pmos1v_CDNS_765647593026                        *
* +++++++++++++++++++++++++++++++++++++++++++++++++++++++++ *
.subckt pmos1v_CDNS_765647593026 1 2 3 4
*.DEVICECLIMB
** N=4 EP=4 FDC=0
.ends pmos1v_CDNS_765647593026

* +++++++++++++++++++++++++++++++++++++++++++++++++++++++++ *
* Sub cell: nmos1v_CDNS_765647593027                        *
* +++++++++++++++++++++++++++++++++++++++++++++++++++++++++ *
.subckt nmos1v_CDNS_765647593027 1 2 3 4
** N=4 EP=4 FDC=1
M0 1 2 3 4 g45n1svt L=4.5e-08 W=1.2e-07 AD=1.68e-14 AS=7.2e-15 PD=5.2e-07 PS=3.6e-07 fw=1.2e-07 sa=2.45e-07 sb=1.4e-07 sca=6.78406 scb=0.00345708 scc=2.49632e-05 $X=0 $Y=0 $dt=0
.ends nmos1v_CDNS_765647593027

* +++++++++++++++++++++++++++++++++++++++++++++++++++++++++ *
* Sub cell: AND                                             *
* +++++++++++++++++++++++++++++++++++++++++++++++++++++++++ *
.subckt AND b a Vdd gnd Vout 6 7
*.DEVICECLIMB
** N=7 EP=7 FDC=3
X0 b M2_M1_CDNS_7656475930211 $T=1510 -2070 0 0 $X=1430 $Y=-2200
X1 b M2_M1_CDNS_7656475930211 $T=3010 -2070 0 0 $X=2930 $Y=-2200
X2 a M1_PO_CDNS_7656475930215 $T=1870 -1670 0 0 $X=1770 $Y=-1790
X3 b M1_PO_CDNS_7656475930215 $T=2510 -2070 0 0 $X=2410 $Y=-2190
X4 6 M1_PO_CDNS_7656475930215 $T=4500 -2020 0 0 $X=4400 $Y=-2140
X5 Vout M3_M2_CDNS_7656475930217 $T=5170 -2000 0 0 $X=5090 $Y=-2250
X6 Vout M2_M1_CDNS_7656475930218 $T=5170 -2000 0 0 $X=5090 $Y=-2250
X7 gnd Vout 6 nmos1v_CDNS_765647593022 $T=4560 -2770 0 0 $X=3980 $Y=-2970
X8 Vdd Vout 6 gnd pmos1v_CDNS_765647593023 $T=4560 -1510 0 0 $X=3880 $Y=-1710
X9 gnd b 7 nmos1v_CDNS_765647593024 $T=2230 -2760 1 180 $X=1940 $Y=-2960
X10 Vdd a 6 gnd pmos1v_CDNS_765647593025 $T=1930 -1320 0 0 $X=1250 $Y=-1520
X11 Vdd 6 b gnd pmos1v_CDNS_765647593026 $T=2430 -1320 1 180 $X=1980 $Y=-1520
X12 6 a 7 gnd nmos1v_CDNS_765647593027 $T=2020 -2760 1 180 $X=1510 $Y=-2960
.ends AND

* +++++++++++++++++++++++++++++++++++++++++++++++++++++++++ *
* Sub cell: M4_M3_CDNS_7656475930219                        *
* +++++++++++++++++++++++++++++++++++++++++++++++++++++++++ *
.subckt M4_M3_CDNS_7656475930219 1
** N=1 EP=1 FDC=0
.ends M4_M3_CDNS_7656475930219

* +++++++++++++++++++++++++++++++++++++++++++++++++++++++++ *
* Sub cell: M7_M6_CDNS_7656475930220                        *
* +++++++++++++++++++++++++++++++++++++++++++++++++++++++++ *
.subckt M7_M6_CDNS_7656475930220 1
** N=1 EP=1 FDC=0
.ends M7_M6_CDNS_7656475930220

* +++++++++++++++++++++++++++++++++++++++++++++++++++++++++ *
* Sub cell: M1_PO_CDNS_7656475930221                        *
* +++++++++++++++++++++++++++++++++++++++++++++++++++++++++ *
.subckt M1_PO_CDNS_7656475930221 1
** N=1 EP=1 FDC=0
.ends M1_PO_CDNS_7656475930221

* +++++++++++++++++++++++++++++++++++++++++++++++++++++++++ *
* Sub cell: M6_M5_CDNS_7656475930222                        *
* +++++++++++++++++++++++++++++++++++++++++++++++++++++++++ *
.subckt M6_M5_CDNS_7656475930222 1
** N=1 EP=1 FDC=0
.ends M6_M5_CDNS_7656475930222

* +++++++++++++++++++++++++++++++++++++++++++++++++++++++++ *
* Sub cell: M5_M4_CDNS_7656475930223                        *
* +++++++++++++++++++++++++++++++++++++++++++++++++++++++++ *
.subckt M5_M4_CDNS_7656475930223 1
** N=1 EP=1 FDC=0
.ends M5_M4_CDNS_7656475930223

* +++++++++++++++++++++++++++++++++++++++++++++++++++++++++ *
* Sub cell: M1_PO_CDNS_7656475930224                        *
* +++++++++++++++++++++++++++++++++++++++++++++++++++++++++ *
.subckt M1_PO_CDNS_7656475930224 1
** N=1 EP=1 FDC=0
.ends M1_PO_CDNS_7656475930224

* +++++++++++++++++++++++++++++++++++++++++++++++++++++++++ *
* Sub cell: M2_M1_CDNS_7656475930226                        *
* +++++++++++++++++++++++++++++++++++++++++++++++++++++++++ *
.subckt M2_M1_CDNS_7656475930226 1
** N=1 EP=1 FDC=0
.ends M2_M1_CDNS_7656475930226

* +++++++++++++++++++++++++++++++++++++++++++++++++++++++++ *
* Sub cell: M7_M6_CDNS_7656475930227                        *
* +++++++++++++++++++++++++++++++++++++++++++++++++++++++++ *
.subckt M7_M6_CDNS_7656475930227 1
** N=1 EP=1 FDC=0
.ends M7_M6_CDNS_7656475930227

* +++++++++++++++++++++++++++++++++++++++++++++++++++++++++ *
* Sub cell: M6_M5_CDNS_7656475930228                        *
* +++++++++++++++++++++++++++++++++++++++++++++++++++++++++ *
.subckt M6_M5_CDNS_7656475930228 1
** N=1 EP=1 FDC=0
.ends M6_M5_CDNS_7656475930228

* +++++++++++++++++++++++++++++++++++++++++++++++++++++++++ *
* Sub cell: M6_M5_CDNS_7656475930229                        *
* +++++++++++++++++++++++++++++++++++++++++++++++++++++++++ *
.subckt M6_M5_CDNS_7656475930229 1
** N=1 EP=1 FDC=0
.ends M6_M5_CDNS_7656475930229

* +++++++++++++++++++++++++++++++++++++++++++++++++++++++++ *
* Sub cell: M3_M2_CDNS_7656475930230                        *
* +++++++++++++++++++++++++++++++++++++++++++++++++++++++++ *
.subckt M3_M2_CDNS_7656475930230 1
** N=1 EP=1 FDC=0
.ends M3_M2_CDNS_7656475930230

* +++++++++++++++++++++++++++++++++++++++++++++++++++++++++ *
* Sub cell: M5_M4_CDNS_7656475930231                        *
* +++++++++++++++++++++++++++++++++++++++++++++++++++++++++ *
.subckt M5_M4_CDNS_7656475930231 1
** N=1 EP=1 FDC=0
.ends M5_M4_CDNS_7656475930231

* +++++++++++++++++++++++++++++++++++++++++++++++++++++++++ *
* Sub cell: pmos1v_CDNS_765647593028                        *
* +++++++++++++++++++++++++++++++++++++++++++++++++++++++++ *
.subckt pmos1v_CDNS_765647593028 1 2 3 4 5
** N=5 EP=5 FDC=1
M0 4 3 1 2 g45p1svt L=4.5e-08 W=1.2e-07 AD=1.68e-14 AS=1.68e-14 PD=5.2e-07 PS=5.2e-07 fw=1.2e-07 sa=1.4e-07 sb=1.4e-07 sca=3.73438 scb=0.00013556 scc=4.76679e-09 $X=0 $Y=0 $dt=1
.ends pmos1v_CDNS_765647593028

* +++++++++++++++++++++++++++++++++++++++++++++++++++++++++ *
* Sub cell: nmos1v_CDNS_765647593029                        *
* +++++++++++++++++++++++++++++++++++++++++++++++++++++++++ *
.subckt nmos1v_CDNS_765647593029 1 2 3 4
** N=4 EP=4 FDC=1
M0 4 3 1 2 g45n1svt L=4.5e-08 W=1.2e-07 AD=1.68e-14 AS=1.68e-14 PD=5.2e-07 PS=5.2e-07 fw=1.2e-07 sa=1.4e-07 sb=1.4e-07 sca=3.69959 scb=0.00013007 scc=4.39142e-09 $X=0 $Y=0 $dt=0
.ends nmos1v_CDNS_765647593029

* +++++++++++++++++++++++++++++++++++++++++++++++++++++++++ *
* Sub cell: 4bit_CLA_logic                                  *
* +++++++++++++++++++++++++++++++++++++++++++++++++++++++++ *
.subckt 4bit_CLA_logic p1 g1 c0 vdd gnd p2 g2 cout1 p3 g3
+ cout2 p4 cout3 g4 cout4 16 17 18 19 20
+ 21 22 23 24 25 26 27 28 29 30
+ 31 32 33 34 35 36 37 38 39
*.DEVICECLIMB
** N=39 EP=39 FDC=54
X0 g1 M3_M2_CDNS_765647593020 $T=610 4030 0 0 $X=530 $Y=3780
X1 p1 M3_M2_CDNS_765647593020 $T=930 5440 0 0 $X=850 $Y=5190
X2 g1 M3_M2_CDNS_765647593020 $T=2790 4030 0 0 $X=2710 $Y=3780
X3 g2 M3_M2_CDNS_765647593020 $T=3110 3560 0 0 $X=3030 $Y=3310
X4 cout1 M3_M2_CDNS_765647593020 $T=4110 1490 0 0 $X=4030 $Y=1240
X5 p1 M3_M2_CDNS_765647593020 $T=5580 5440 0 0 $X=5500 $Y=5190
X6 g1 M3_M2_CDNS_765647593020 $T=7440 4030 0 0 $X=7360 $Y=3780
X7 g3 M3_M2_CDNS_765647593020 $T=8700 3090 0 0 $X=8620 $Y=2840
X8 cout2 M3_M2_CDNS_765647593020 $T=9690 1490 0 0 $X=9610 $Y=1240
X9 p3 M3_M2_CDNS_765647593020 $T=10230 6380 0 0 $X=10150 $Y=6130
X10 p1 M3_M2_CDNS_765647593020 $T=12090 5440 0 0 $X=12010 $Y=5190
X11 g1 M3_M2_CDNS_765647593020 $T=13950 4030 0 0 $X=13870 $Y=3780
X12 g3 M3_M2_CDNS_765647593020 $T=15810 3090 0 0 $X=15730 $Y=2840
X13 cout3 M3_M2_CDNS_765647593020 $T=17130 1490 0 0 $X=17050 $Y=1240
X14 g4 M3_M2_CDNS_765647593020 $T=17490 2630 0 0 $X=17410 $Y=2380
X15 p3 M3_M2_CDNS_765647593020 $T=18600 6380 0 0 $X=18520 $Y=6130
X16 p1 M3_M2_CDNS_765647593020 $T=20460 5440 0 0 $X=20380 $Y=5190
X17 g1 M3_M2_CDNS_765647593020 $T=22320 4030 0 0 $X=22240 $Y=3780
X18 g3 M3_M2_CDNS_765647593020 $T=24180 3090 0 0 $X=24100 $Y=2840
X19 cout4 M3_M2_CDNS_765647593020 $T=26430 1490 0 0 $X=26350 $Y=1240
X20 g1 M4_M3_CDNS_765647593021 $T=610 4030 0 0 $X=530 $Y=3780
X21 p1 M4_M3_CDNS_765647593021 $T=930 5440 0 0 $X=850 $Y=5190
X22 g1 M4_M3_CDNS_765647593021 $T=2790 4030 0 0 $X=2710 $Y=3780
X23 p1 M4_M3_CDNS_765647593021 $T=5580 5440 0 0 $X=5500 $Y=5190
X24 g1 M4_M3_CDNS_765647593021 $T=7440 4030 0 0 $X=7360 $Y=3780
X25 g3 M4_M3_CDNS_765647593021 $T=8700 3090 0 0 $X=8620 $Y=2840
X26 p3 M4_M3_CDNS_765647593021 $T=10230 6380 0 0 $X=10150 $Y=6130
X27 p1 M4_M3_CDNS_765647593021 $T=12090 5440 0 0 $X=12010 $Y=5190
X28 g1 M4_M3_CDNS_765647593021 $T=13950 4030 0 0 $X=13870 $Y=3780
X29 g3 M4_M3_CDNS_765647593021 $T=15810 3090 0 0 $X=15730 $Y=2840
X30 p3 M4_M3_CDNS_765647593021 $T=18600 6380 0 0 $X=18520 $Y=6130
X31 p1 M4_M3_CDNS_765647593021 $T=20460 5440 0 0 $X=20380 $Y=5190
X32 g1 M4_M3_CDNS_765647593021 $T=22320 4030 0 0 $X=22240 $Y=3780
X33 g3 M4_M3_CDNS_765647593021 $T=24180 3090 0 0 $X=24100 $Y=2840
X34 g2 M4_M3_CDNS_765647593025 $T=3110 3560 0 0 $X=3030 $Y=3310
X35 cout1 M4_M3_CDNS_765647593025 $T=4110 1490 0 0 $X=4030 $Y=1240
X36 cout2 M4_M3_CDNS_765647593025 $T=9690 1490 0 0 $X=9610 $Y=1240
X37 cout3 M4_M3_CDNS_765647593025 $T=17130 1490 0 0 $X=17050 $Y=1240
X38 g4 M4_M3_CDNS_765647593025 $T=17490 2630 0 0 $X=17410 $Y=2380
X39 cout4 M4_M3_CDNS_765647593025 $T=26430 1490 0 0 $X=26350 $Y=1240
X40 16 M3_M2_CDNS_765647593026 $T=3580 4500 0 0 $X=3360 $Y=4250
X41 17 M3_M2_CDNS_765647593026 $T=9160 4500 0 0 $X=8940 $Y=4250
X42 18 M3_M2_CDNS_765647593026 $T=16600 4500 0 0 $X=16380 $Y=4250
X43 19 M3_M2_CDNS_765647593026 $T=25900 4500 0 0 $X=25680 $Y=4250
X44 16 M4_M3_CDNS_765647593027 $T=3580 4500 0 0 $X=3360 $Y=4250
X45 17 M4_M3_CDNS_765647593027 $T=9160 4500 0 0 $X=8940 $Y=4250
X46 18 M4_M3_CDNS_765647593027 $T=16600 4500 0 0 $X=16380 $Y=4250
X47 19 M4_M3_CDNS_765647593027 $T=25900 4500 0 0 $X=25680 $Y=4250
X48 16 M5_M4_CDNS_765647593028 $T=3580 4500 0 0 $X=3360 $Y=4250
X49 17 M5_M4_CDNS_765647593028 $T=9160 4500 0 0 $X=8940 $Y=4250
X50 18 M5_M4_CDNS_765647593028 $T=16600 4500 0 0 $X=16380 $Y=4250
X51 19 M5_M4_CDNS_765647593028 $T=25900 4500 0 0 $X=25680 $Y=4250
X52 16 M2_M1_CDNS_7656475930210 $T=3580 4500 0 0 $X=3360 $Y=4250
X53 17 M2_M1_CDNS_7656475930210 $T=9160 4500 0 0 $X=8940 $Y=4250
X54 18 M2_M1_CDNS_7656475930210 $T=16600 4500 0 0 $X=16380 $Y=4250
X55 19 M2_M1_CDNS_7656475930210 $T=25900 4500 0 0 $X=25680 $Y=4250
X56 g1 M2_M1_CDNS_7656475930212 $T=610 4030 0 0 $X=530 $Y=3780
X57 p1 M2_M1_CDNS_7656475930212 $T=930 5440 0 0 $X=850 $Y=5190
X58 c0 M2_M1_CDNS_7656475930212 $T=1860 4970 0 0 $X=1780 $Y=4720
X59 g1 M2_M1_CDNS_7656475930212 $T=2790 4030 0 0 $X=2710 $Y=3780
X60 g2 M2_M1_CDNS_7656475930212 $T=3110 3560 0 0 $X=3030 $Y=3310
X61 cout1 M2_M1_CDNS_7656475930212 $T=4110 1490 0 0 $X=4030 $Y=1240
X62 p2 M2_M1_CDNS_7656475930212 $T=4650 5910 0 0 $X=4570 $Y=5660
X63 p1 M2_M1_CDNS_7656475930212 $T=5580 5440 0 0 $X=5500 $Y=5190
X64 c0 M2_M1_CDNS_7656475930212 $T=6510 4970 0 0 $X=6430 $Y=4720
X65 g1 M2_M1_CDNS_7656475930212 $T=7440 4030 0 0 $X=7360 $Y=3780
X66 g2 M2_M1_CDNS_7656475930212 $T=8370 3560 0 0 $X=8290 $Y=3310
X67 g3 M2_M1_CDNS_7656475930212 $T=8700 3090 0 0 $X=8620 $Y=2840
X68 cout2 M2_M1_CDNS_7656475930212 $T=9690 1490 0 0 $X=9610 $Y=1240
X69 p3 M2_M1_CDNS_7656475930212 $T=10230 6380 0 0 $X=10150 $Y=6130
X70 p2 M2_M1_CDNS_7656475930212 $T=11160 5910 0 0 $X=11080 $Y=5660
X71 p1 M2_M1_CDNS_7656475930212 $T=12090 5440 0 0 $X=12010 $Y=5190
X72 c0 M2_M1_CDNS_7656475930212 $T=13020 4970 0 0 $X=12940 $Y=4720
X73 g1 M2_M1_CDNS_7656475930212 $T=13950 4030 0 0 $X=13870 $Y=3780
X74 g2 M2_M1_CDNS_7656475930212 $T=14880 3560 0 0 $X=14800 $Y=3310
X75 g3 M2_M1_CDNS_7656475930212 $T=15810 3090 0 0 $X=15730 $Y=2840
X76 cout3 M2_M1_CDNS_7656475930212 $T=17130 1490 0 0 $X=17050 $Y=1240
X77 g4 M2_M1_CDNS_7656475930212 $T=17490 2630 0 0 $X=17410 $Y=2380
X78 p4 M2_M1_CDNS_7656475930212 $T=17670 6850 0 0 $X=17590 $Y=6600
X79 p3 M2_M1_CDNS_7656475930212 $T=18600 6380 0 0 $X=18520 $Y=6130
X80 p2 M2_M1_CDNS_7656475930212 $T=19530 5910 0 0 $X=19450 $Y=5660
X81 p1 M2_M1_CDNS_7656475930212 $T=20460 5440 0 0 $X=20380 $Y=5190
X82 c0 M2_M1_CDNS_7656475930212 $T=21390 4970 0 0 $X=21310 $Y=4720
X83 g1 M2_M1_CDNS_7656475930212 $T=22320 4030 0 0 $X=22240 $Y=3780
X84 g2 M2_M1_CDNS_7656475930212 $T=23250 3560 0 0 $X=23170 $Y=3310
X85 g3 M2_M1_CDNS_7656475930212 $T=24180 3090 0 0 $X=24100 $Y=2840
X86 g4 M2_M1_CDNS_7656475930212 $T=25110 2620 0 0 $X=25030 $Y=2370
X87 cout4 M2_M1_CDNS_7656475930212 $T=26430 1490 0 0 $X=26350 $Y=1240
X88 vdd vdd g1 20 gnd pmos1v_CDNS_765647593020 $T=2980 8370 1 180 $X=2470 $Y=8170
X89 vdd vdd 16 cout1 gnd pmos1v_CDNS_765647593020 $T=3820 8370 0 0 $X=3400 $Y=8170
X90 vdd vdd p2 17 gnd pmos1v_CDNS_765647593020 $T=4750 8370 0 0 $X=4330 $Y=8170
X91 21 vdd c0 17 gnd pmos1v_CDNS_765647593020 $T=6700 8370 1 180 $X=6190 $Y=8170
X92 22 vdd g1 21 gnd pmos1v_CDNS_765647593020 $T=7630 8370 1 180 $X=7120 $Y=8170
X93 vdd vdd g2 22 gnd pmos1v_CDNS_765647593020 $T=8560 8370 1 180 $X=8050 $Y=8170
X94 vdd vdd 17 cout2 gnd pmos1v_CDNS_765647593020 $T=9400 8370 0 0 $X=8980 $Y=8170
X95 vdd vdd p3 18 gnd pmos1v_CDNS_765647593020 $T=10330 8370 0 0 $X=9910 $Y=8170
X96 23 vdd p2 18 gnd pmos1v_CDNS_765647593020 $T=11350 8370 1 180 $X=10840 $Y=8170
X97 24 vdd p1 18 gnd pmos1v_CDNS_765647593020 $T=12280 8370 1 180 $X=11770 $Y=8170
X98 25 vdd c0 18 gnd pmos1v_CDNS_765647593020 $T=13210 8370 1 180 $X=12700 $Y=8170
X99 24 vdd g1 25 gnd pmos1v_CDNS_765647593020 $T=14140 8370 1 180 $X=13630 $Y=8170
X100 23 vdd g2 24 gnd pmos1v_CDNS_765647593020 $T=15070 8370 1 180 $X=14560 $Y=8170
X101 vdd vdd g3 23 gnd pmos1v_CDNS_765647593020 $T=16000 8370 1 180 $X=15490 $Y=8170
X102 vdd vdd p4 19 gnd pmos1v_CDNS_765647593020 $T=17770 8370 0 0 $X=17350 $Y=8170
X103 26 vdd p2 19 gnd pmos1v_CDNS_765647593020 $T=19720 8370 1 180 $X=19210 $Y=8170
X104 27 vdd p1 19 gnd pmos1v_CDNS_765647593020 $T=20650 8370 1 180 $X=20140 $Y=8170
X105 27 vdd g1 28 gnd pmos1v_CDNS_765647593020 $T=22510 8370 1 180 $X=22000 $Y=8170
X106 26 vdd g2 27 gnd pmos1v_CDNS_765647593020 $T=23440 8370 1 180 $X=22930 $Y=8170
X107 vdd vdd g4 29 gnd pmos1v_CDNS_765647593020 $T=25300 8370 1 180 $X=24790 $Y=8170
X108 vdd vdd 19 cout4 gnd pmos1v_CDNS_765647593020 $T=26140 8370 0 0 $X=25720 $Y=8170
X109 gnd gnd p1 30 nmos1v_CDNS_765647593021 $T=1030 800 0 0 $X=610 $Y=240
X110 30 gnd c0 16 nmos1v_CDNS_765647593021 $T=1960 800 0 0 $X=1540 $Y=240
X111 gnd gnd p2 31 nmos1v_CDNS_765647593021 $T=4750 800 0 0 $X=4330 $Y=240
X112 31 gnd g1 17 nmos1v_CDNS_765647593021 $T=7540 800 0 0 $X=7120 $Y=240
X113 gnd gnd g2 17 nmos1v_CDNS_765647593021 $T=8560 800 1 180 $X=8050 $Y=240
X114 gnd gnd 17 cout2 nmos1v_CDNS_765647593021 $T=9400 800 0 0 $X=8980 $Y=240
X115 32 gnd p1 33 nmos1v_CDNS_765647593021 $T=12190 800 0 0 $X=11770 $Y=240
X116 33 gnd c0 18 nmos1v_CDNS_765647593021 $T=13120 800 0 0 $X=12700 $Y=240
X117 34 gnd g2 18 nmos1v_CDNS_765647593021 $T=14980 800 0 0 $X=14560 $Y=240
X118 gnd gnd g3 18 nmos1v_CDNS_765647593021 $T=16000 800 1 180 $X=15490 $Y=240
X119 gnd gnd 18 cout3 nmos1v_CDNS_765647593021 $T=16840 800 0 0 $X=16420 $Y=240
X120 35 gnd p3 36 nmos1v_CDNS_765647593021 $T=18700 800 0 0 $X=18280 $Y=240
X121 36 gnd g2 19 nmos1v_CDNS_765647593021 $T=23350 800 0 0 $X=22930 $Y=240
X122 gnd gnd 19 cout4 nmos1v_CDNS_765647593021 $T=26140 800 0 0 $X=25720 $Y=240
X123 c0 M3_M2_CDNS_7656475930217 $T=250 4970 0 90 $X=0 $Y=4890
X124 c0 M3_M2_CDNS_7656475930217 $T=1860 4970 0 0 $X=1780 $Y=4720
X125 p2 M3_M2_CDNS_7656475930217 $T=4650 5910 0 0 $X=4570 $Y=5660
X126 c0 M3_M2_CDNS_7656475930217 $T=6510 4970 0 0 $X=6430 $Y=4720
X127 g2 M3_M2_CDNS_7656475930217 $T=8370 3560 0 0 $X=8290 $Y=3310
X128 p2 M3_M2_CDNS_7656475930217 $T=11160 5910 0 0 $X=11080 $Y=5660
X129 c0 M3_M2_CDNS_7656475930217 $T=13020 4970 0 0 $X=12940 $Y=4720
X130 g2 M3_M2_CDNS_7656475930217 $T=14880 3560 0 0 $X=14800 $Y=3310
X131 p4 M3_M2_CDNS_7656475930217 $T=17670 6850 0 0 $X=17590 $Y=6600
X132 p2 M3_M2_CDNS_7656475930217 $T=19530 5910 0 0 $X=19450 $Y=5660
X133 c0 M3_M2_CDNS_7656475930217 $T=21390 4970 0 0 $X=21310 $Y=4720
X134 g2 M3_M2_CDNS_7656475930217 $T=23250 3560 0 0 $X=23170 $Y=3310
X135 g4 M3_M2_CDNS_7656475930217 $T=25110 2620 0 0 $X=25030 $Y=2370
X136 c0 M2_M1_CDNS_7656475930218 $T=250 4970 0 90 $X=0 $Y=4890
X137 p1 M4_M3_CDNS_7656475930219 $T=80 5580 0 0 $X=0 $Y=5190
X138 16 M4_M3_CDNS_7656475930219 $T=1540 7840 0 0 $X=1460 $Y=7450
X139 p2 M4_M3_CDNS_7656475930219 $T=2130 6050 0 0 $X=2050 $Y=5660
X140 16 M4_M3_CDNS_7656475930219 $T=2470 1570 0 0 $X=2390 $Y=1180
X141 17 M4_M3_CDNS_7656475930219 $T=5260 7840 0 0 $X=5180 $Y=7450
X142 17 M4_M3_CDNS_7656475930219 $T=6450 7840 0 0 $X=6370 $Y=7450
X143 17 M4_M3_CDNS_7656475930219 $T=6860 1570 0 0 $X=6780 $Y=1180
X144 p3 M4_M3_CDNS_7656475930219 $T=7710 6520 0 0 $X=7630 $Y=6130
X145 17 M4_M3_CDNS_7656475930219 $T=8050 1570 0 0 $X=7970 $Y=1180
X146 18 M4_M3_CDNS_7656475930219 $T=10840 7840 0 0 $X=10760 $Y=7450
X147 18 M4_M3_CDNS_7656475930219 $T=12030 7840 0 0 $X=11950 $Y=7450
X148 18 M4_M3_CDNS_7656475930219 $T=12960 7840 0 0 $X=12880 $Y=7450
X149 18 M4_M3_CDNS_7656475930219 $T=13370 1570 0 0 $X=13290 $Y=1180
X150 18 M4_M3_CDNS_7656475930219 $T=14300 1570 0 0 $X=14220 $Y=1180
X151 18 M4_M3_CDNS_7656475930219 $T=15490 1570 0 0 $X=15410 $Y=1180
X152 p4 M4_M3_CDNS_7656475930219 $T=16080 6990 0 0 $X=16000 $Y=6600
X153 19 M4_M3_CDNS_7656475930219 $T=18280 7840 0 0 $X=18200 $Y=7450
X154 19 M4_M3_CDNS_7656475930219 $T=19470 7840 0 0 $X=19390 $Y=7450
X155 19 M4_M3_CDNS_7656475930219 $T=20400 7840 0 0 $X=20320 $Y=7450
X156 19 M4_M3_CDNS_7656475930219 $T=21330 7840 0 0 $X=21250 $Y=7450
X157 19 M4_M3_CDNS_7656475930219 $T=21740 1570 0 0 $X=21660 $Y=1180
X158 19 M4_M3_CDNS_7656475930219 $T=22670 1570 0 0 $X=22590 $Y=1180
X159 19 M4_M3_CDNS_7656475930219 $T=23600 1570 0 0 $X=23520 $Y=1180
X160 19 M4_M3_CDNS_7656475930219 $T=24790 1570 0 0 $X=24710 $Y=1180
X161 16 M7_M6_CDNS_7656475930220 $T=1540 7840 0 0 $X=1460 $Y=7450
X162 16 M7_M6_CDNS_7656475930220 $T=2470 1570 0 0 $X=2390 $Y=1180
X163 17 M7_M6_CDNS_7656475930220 $T=5260 7840 0 0 $X=5180 $Y=7450
X164 17 M7_M6_CDNS_7656475930220 $T=6450 7840 0 0 $X=6370 $Y=7450
X165 17 M7_M6_CDNS_7656475930220 $T=6860 1570 0 0 $X=6780 $Y=1180
X166 17 M7_M6_CDNS_7656475930220 $T=8050 1570 0 0 $X=7970 $Y=1180
X167 18 M7_M6_CDNS_7656475930220 $T=10840 7840 0 0 $X=10760 $Y=7450
X168 18 M7_M6_CDNS_7656475930220 $T=12030 7840 0 0 $X=11950 $Y=7450
X169 18 M7_M6_CDNS_7656475930220 $T=12960 7840 0 0 $X=12880 $Y=7450
X170 18 M7_M6_CDNS_7656475930220 $T=13370 1570 0 0 $X=13290 $Y=1180
X171 18 M7_M6_CDNS_7656475930220 $T=14300 1570 0 0 $X=14220 $Y=1180
X172 18 M7_M6_CDNS_7656475930220 $T=15490 1570 0 0 $X=15410 $Y=1180
X173 19 M7_M6_CDNS_7656475930220 $T=18280 7840 0 0 $X=18200 $Y=7450
X174 19 M7_M6_CDNS_7656475930220 $T=19470 7840 0 0 $X=19390 $Y=7450
X175 19 M7_M6_CDNS_7656475930220 $T=20400 7840 0 0 $X=20320 $Y=7450
X176 19 M7_M6_CDNS_7656475930220 $T=21330 7840 0 0 $X=21250 $Y=7450
X177 19 M7_M6_CDNS_7656475930220 $T=21740 1570 0 0 $X=21660 $Y=1180
X178 19 M7_M6_CDNS_7656475930220 $T=22670 1570 0 0 $X=22590 $Y=1180
X179 19 M7_M6_CDNS_7656475930220 $T=23600 1570 0 0 $X=23520 $Y=1180
X180 19 M7_M6_CDNS_7656475930220 $T=24790 1570 0 0 $X=24710 $Y=1180
X181 16 M1_PO_CDNS_7656475930221 $T=3580 4500 0 0 $X=3340 $Y=4250
X182 17 M1_PO_CDNS_7656475930221 $T=9160 4500 0 0 $X=8920 $Y=4250
X183 18 M1_PO_CDNS_7656475930221 $T=16600 4500 0 0 $X=16360 $Y=4250
X184 16 M6_M5_CDNS_7656475930222 $T=3580 4500 0 0 $X=3360 $Y=4250
X185 17 M6_M5_CDNS_7656475930222 $T=9160 4500 0 0 $X=8940 $Y=4250
X186 18 M6_M5_CDNS_7656475930222 $T=16600 4500 0 0 $X=16380 $Y=4250
X187 19 M6_M5_CDNS_7656475930222 $T=25900 4500 0 0 $X=25680 $Y=4250
X188 g1 M5_M4_CDNS_7656475930223 $T=610 4030 0 0 $X=530 $Y=3780
X189 p1 M5_M4_CDNS_7656475930223 $T=930 5440 0 0 $X=850 $Y=5190
X190 g1 M5_M4_CDNS_7656475930223 $T=2790 4030 0 0 $X=2710 $Y=3780
X191 p1 M5_M4_CDNS_7656475930223 $T=5580 5440 0 0 $X=5500 $Y=5190
X192 g1 M5_M4_CDNS_7656475930223 $T=7440 4030 0 0 $X=7360 $Y=3780
X193 g3 M5_M4_CDNS_7656475930223 $T=8700 3090 0 0 $X=8620 $Y=2840
X194 p3 M5_M4_CDNS_7656475930223 $T=10230 6380 0 0 $X=10150 $Y=6130
X195 p1 M5_M4_CDNS_7656475930223 $T=12090 5440 0 0 $X=12010 $Y=5190
X196 g1 M5_M4_CDNS_7656475930223 $T=13950 4030 0 0 $X=13870 $Y=3780
X197 g3 M5_M4_CDNS_7656475930223 $T=15810 3090 0 0 $X=15730 $Y=2840
X198 p3 M5_M4_CDNS_7656475930223 $T=18600 6380 0 0 $X=18520 $Y=6130
X199 p1 M5_M4_CDNS_7656475930223 $T=20460 5440 0 0 $X=20380 $Y=5190
X200 g1 M5_M4_CDNS_7656475930223 $T=22320 4030 0 0 $X=22240 $Y=3780
X201 g3 M5_M4_CDNS_7656475930223 $T=24180 3090 0 0 $X=24100 $Y=2840
X202 p1 M1_PO_CDNS_7656475930224 $T=930 5440 0 0 $X=830 $Y=5190