* +++++++++++++++++++++++++++++++++++++++++++++++++++++++++ *
* CDL Netlist:                                              *
*                                                           *
* Cell Name  : WallaceProject2                              *
* Netlisted  : Sat Dec 13 18:04:18 2025                     *
* PVS Version: 23.11-s036 Wed Jan 17 18:11:41 PST 2024      *
* +++++++++++++++++++++++++++++++++++++++++++++++++++++++++ *
*.LDD
*.DEVTMPLT 0 MN(g45n1svt) _nmos1v ndiff_conn(D) poly_conn(G) ndiff_conn(S) psubstrate(B)
*.DEVTMPLT 1 MP(g45p1svt) _pmos1v pdiff_conn(D) poly_conn(G) pdiff_conn(S) nwell_conn(B)

* +++++++++++++++++++++++++++++++++++++++++++++++++++++++++ *
* Sub cell: M2_M1_CDNS_765667052440                         *
* +++++++++++++++++++++++++++++++++++++++++++++++++++++++++ *
.subckt M2_M1_CDNS_765667052440 1
** N=1 EP=1 FDC=0
.ends M2_M1_CDNS_765667052440

* +++++++++++++++++++++++++++++++++++++++++++++++++++++++++ *
* Sub cell: M4_M3_CDNS_765667052441                         *
* +++++++++++++++++++++++++++++++++++++++++++++++++++++++++ *
.subckt M4_M3_CDNS_765667052441 1
** N=1 EP=1 FDC=0
.ends M4_M3_CDNS_765667052441

* +++++++++++++++++++++++++++++++++++++++++++++++++++++++++ *
* Sub cell: M3_M2_CDNS_765667052442                         *
* +++++++++++++++++++++++++++++++++++++++++++++++++++++++++ *
.subckt M3_M2_CDNS_765667052442 1
** N=1 EP=1 FDC=0
.ends M3_M2_CDNS_765667052442

* +++++++++++++++++++++++++++++++++++++++++++++++++++++++++ *
* Sub cell: M2_M1_CDNS_765667052443                         *
* +++++++++++++++++++++++++++++++++++++++++++++++++++++++++ *
.subckt M2_M1_CDNS_765667052443 1
** N=1 EP=1 FDC=0
.ends M2_M1_CDNS_765667052443

* +++++++++++++++++++++++++++++++++++++++++++++++++++++++++ *
* Sub cell: M3_M2_CDNS_765667052444                         *
* +++++++++++++++++++++++++++++++++++++++++++++++++++++++++ *
.subckt M3_M2_CDNS_765667052444 1
** N=1 EP=1 FDC=0
.ends M3_M2_CDNS_765667052444

* +++++++++++++++++++++++++++++++++++++++++++++++++++++++++ *
* Sub cell: M3_M2_CDNS_765667052445                         *
* +++++++++++++++++++++++++++++++++++++++++++++++++++++++++ *
.subckt M3_M2_CDNS_765667052445 1
** N=1 EP=1 FDC=0
.ends M3_M2_CDNS_765667052445

* +++++++++++++++++++++++++++++++++++++++++++++++++++++++++ *
* Sub cell: M2_M1_CDNS_765667052446                         *
* +++++++++++++++++++++++++++++++++++++++++++++++++++++++++ *
.subckt M2_M1_CDNS_765667052446 1
** N=1 EP=1 FDC=0
.ends M2_M1_CDNS_765667052446

* +++++++++++++++++++++++++++++++++++++++++++++++++++++++++ *
* Sub cell: M3_M2_CDNS_765667052447                         *
* +++++++++++++++++++++++++++++++++++++++++++++++++++++++++ *
.subckt M3_M2_CDNS_765667052447 1
** N=1 EP=1 FDC=0
.ends M3_M2_CDNS_765667052447

* +++++++++++++++++++++++++++++++++++++++++++++++++++++++++ *
* Sub cell: M2_M1_CDNS_765667052448                         *
* +++++++++++++++++++++++++++++++++++++++++++++++++++++++++ *
.subckt M2_M1_CDNS_765667052448 1
** N=1 EP=1 FDC=0
.ends M2_M1_CDNS_765667052448

* +++++++++++++++++++++++++++++++++++++++++++++++++++++++++ *
* Sub cell: M3_M2_CDNS_765667052449                         *
* +++++++++++++++++++++++++++++++++++++++++++++++++++++++++ *
.subckt M3_M2_CDNS_765667052449 1
** N=1 EP=1 FDC=0
.ends M3_M2_CDNS_765667052449

* +++++++++++++++++++++++++++++++++++++++++++++++++++++++++ *
* Sub cell: M4_M3_CDNS_7656670524410                        *
* +++++++++++++++++++++++++++++++++++++++++++++++++++++++++ *
.subckt M4_M3_CDNS_7656670524410 1
** N=1 EP=1 FDC=0
.ends M4_M3_CDNS_7656670524410

* +++++++++++++++++++++++++++++++++++++++++++++++++++++++++ *
* Sub cell: M3_M2_CDNS_7656670524411                        *
* +++++++++++++++++++++++++++++++++++++++++++++++++++++++++ *
.subckt M3_M2_CDNS_7656670524411 1
** N=1 EP=1 FDC=0
.ends M3_M2_CDNS_7656670524411

* +++++++++++++++++++++++++++++++++++++++++++++++++++++++++ *
* Sub cell: M3_M2_CDNS_7656670524412                        *
* +++++++++++++++++++++++++++++++++++++++++++++++++++++++++ *
.subckt M3_M2_CDNS_7656670524412 1
** N=1 EP=1 FDC=0
.ends M3_M2_CDNS_7656670524412

* +++++++++++++++++++++++++++++++++++++++++++++++++++++++++ *
* Sub cell: M3_M2_CDNS_7656670524413                        *
* +++++++++++++++++++++++++++++++++++++++++++++++++++++++++ *
.subckt M3_M2_CDNS_7656670524413 1
** N=1 EP=1 FDC=0
.ends M3_M2_CDNS_7656670524413

* +++++++++++++++++++++++++++++++++++++++++++++++++++++++++ *
* Sub cell: M4_M3_CDNS_7656670524414                        *
* +++++++++++++++++++++++++++++++++++++++++++++++++++++++++ *
.subckt M4_M3_CDNS_7656670524414 1
** N=1 EP=1 FDC=0
.ends M4_M3_CDNS_7656670524414

* +++++++++++++++++++++++++++++++++++++++++++++++++++++++++ *
* Sub cell: M4_M3_CDNS_7656670524415                        *
* +++++++++++++++++++++++++++++++++++++++++++++++++++++++++ *
.subckt M4_M3_CDNS_7656670524415 1
** N=1 EP=1 FDC=0
.ends M4_M3_CDNS_7656670524415

* +++++++++++++++++++++++++++++++++++++++++++++++++++++++++ *
* Sub cell: M3_M2_CDNS_7656670524416                        *
* +++++++++++++++++++++++++++++++++++++++++++++++++++++++++ *
.subckt M3_M2_CDNS_7656670524416 1
** N=1 EP=1 FDC=0
.ends M3_M2_CDNS_7656670524416

* +++++++++++++++++++++++++++++++++++++++++++++++++++++++++ *
* Sub cell: M4_M3_CDNS_7656670524417                        *
* +++++++++++++++++++++++++++++++++++++++++++++++++++++++++ *
.subckt M4_M3_CDNS_7656670524417 1
** N=1 EP=1 FDC=0
.ends M4_M3_CDNS_7656670524417

* +++++++++++++++++++++++++++++++++++++++++++++++++++++++++ *
* Sub cell: M4_M3_CDNS_7656670524418                        *
* +++++++++++++++++++++++++++++++++++++++++++++++++++++++++ *
.subckt M4_M3_CDNS_7656670524418 1
** N=1 EP=1 FDC=0
.ends M4_M3_CDNS_7656670524418

* +++++++++++++++++++++++++++++++++++++++++++++++++++++++++ *
* Sub cell: M5_M4_CDNS_7656670524420                        *
* +++++++++++++++++++++++++++++++++++++++++++++++++++++++++ *
.subckt M5_M4_CDNS_7656670524420 1
** N=1 EP=1 FDC=0
.ends M5_M4_CDNS_7656670524420

* +++++++++++++++++++++++++++++++++++++++++++++++++++++++++ *
* Sub cell: M5_M4_CDNS_7656670524421                        *
* +++++++++++++++++++++++++++++++++++++++++++++++++++++++++ *
.subckt M5_M4_CDNS_7656670524421 1
** N=1 EP=1 FDC=0
.ends M5_M4_CDNS_7656670524421

* +++++++++++++++++++++++++++++++++++++++++++++++++++++++++ *
* Sub cell: M5_M4_CDNS_7656670524422                        *
* +++++++++++++++++++++++++++++++++++++++++++++++++++++++++ *
.subckt M5_M4_CDNS_7656670524422 1
** N=1 EP=1 FDC=0
.ends M5_M4_CDNS_7656670524422

* +++++++++++++++++++++++++++++++++++++++++++++++++++++++++ *
* Sub cell: M2_M1_CDNS_7656670524423                        *
* +++++++++++++++++++++++++++++++++++++++++++++++++++++++++ *
.subckt M2_M1_CDNS_7656670524423 1
** N=1 EP=1 FDC=0
.ends M2_M1_CDNS_7656670524423

* +++++++++++++++++++++++++++++++++++++++++++++++++++++++++ *
* Sub cell: M5_M4_CDNS_7656670524424                        *
* +++++++++++++++++++++++++++++++++++++++++++++++++++++++++ *
.subckt M5_M4_CDNS_7656670524424 1
** N=1 EP=1 FDC=0
.ends M5_M4_CDNS_7656670524424

* +++++++++++++++++++++++++++++++++++++++++++++++++++++++++ *
* Sub cell: M5_M4_CDNS_7656670524425                        *
* +++++++++++++++++++++++++++++++++++++++++++++++++++++++++ *
.subckt M5_M4_CDNS_7656670524425 1
** N=1 EP=1 FDC=0
.ends M5_M4_CDNS_7656670524425

* +++++++++++++++++++++++++++++++++++++++++++++++++++++++++ *
* Sub cell: M4_M3_CDNS_7656670524428                        *
* +++++++++++++++++++++++++++++++++++++++++++++++++++++++++ *
.subckt M4_M3_CDNS_7656670524428 1
** N=1 EP=1 FDC=0
.ends M4_M3_CDNS_7656670524428

* +++++++++++++++++++++++++++++++++++++++++++++++++++++++++ *
* Sub cell: M2_M1_CDNS_7656670524429                        *
* +++++++++++++++++++++++++++++++++++++++++++++++++++++++++ *
.subckt M2_M1_CDNS_7656670524429 1
** N=1 EP=1 FDC=0
.ends M2_M1_CDNS_7656670524429

* +++++++++++++++++++++++++++++++++++++++++++++++++++++++++ *
* Sub cell: M5_M4_CDNS_7656670524430                        *
* +++++++++++++++++++++++++++++++++++++++++++++++++++++++++ *
.subckt M5_M4_CDNS_7656670524430 1
** N=1 EP=1 FDC=0
.ends M5_M4_CDNS_7656670524430

* +++++++++++++++++++++++++++++++++++++++++++++++++++++++++ *
* Sub cell: M3_M2_CDNS_7656670524431                        *
* +++++++++++++++++++++++++++++++++++++++++++++++++++++++++ *
.subckt M3_M2_CDNS_7656670524431 1
** N=1 EP=1 FDC=0
.ends M3_M2_CDNS_7656670524431

* +++++++++++++++++++++++++++++++++++++++++++++++++++++++++ *
* Sub cell: M5_M4_CDNS_7656670524432                        *
* +++++++++++++++++++++++++++++++++++++++++++++++++++++++++ *
.subckt M5_M4_CDNS_7656670524432 1
** N=1 EP=1 FDC=0
.ends M5_M4_CDNS_7656670524432

* +++++++++++++++++++++++++++++++++++++++++++++++++++++++++ *
* Sub cell: M3_M2_CDNS_7656670524433                        *
* +++++++++++++++++++++++++++++++++++++++++++++++++++++++++ *
.subckt M3_M2_CDNS_7656670524433 1
** N=1 EP=1 FDC=0
.ends M3_M2_CDNS_7656670524433

* +++++++++++++++++++++++++++++++++++++++++++++++++++++++++ *
* Sub cell: M4_M3_CDNS_7656670524436                        *
* +++++++++++++++++++++++++++++++++++++++++++++++++++++++++ *
.subckt M4_M3_CDNS_7656670524436 1
** N=1 EP=1 FDC=0
.ends M4_M3_CDNS_7656670524436

* +++++++++++++++++++++++++++++++++++++++++++++++++++++++++ *
* Sub cell: M3_M2_CDNS_7656670524438                        *
* +++++++++++++++++++++++++++++++++++++++++++++++++++++++++ *
.subckt M3_M2_CDNS_7656670524438 1
** N=1 EP=1 FDC=0
.ends M3_M2_CDNS_7656670524438

* +++++++++++++++++++++++++++++++++++++++++++++++++++++++++ *
* Sub cell: M1_PO_CDNS_7656670524441                        *
* +++++++++++++++++++++++++++++++++++++++++++++++++++++++++ *
.subckt M1_PO_CDNS_7656670524441 1
** N=1 EP=1 FDC=0
.ends M1_PO_CDNS_7656670524441

* +++++++++++++++++++++++++++++++++++++++++++++++++++++++++ *
* Sub cell: pmos1v_CDNS_765667052440                        *
* +++++++++++++++++++++++++++++++++++++++++++++++++++++++++ *
.subckt pmos1v_CDNS_765667052440 1 2 3 4 5
*.DEVICECLIMB
** N=5 EP=5 FDC=0
.ends pmos1v_CDNS_765667052440

* +++++++++++++++++++++++++++++++++++++++++++++++++++++++++ *
* Sub cell: nmos1v_CDNS_765667052441                        *
* +++++++++++++++++++++++++++++++++++++++++++++++++++++++++ *
.subckt nmos1v_CDNS_765667052441 1 2 3 4
*.DEVICECLIMB
** N=4 EP=4 FDC=0
.ends nmos1v_CDNS_765667052441

* +++++++++++++++++++++++++++++++++++++++++++++++++++++++++ *
* Sub cell: Diver                                           *
* +++++++++++++++++++++++++++++++++++++++++++++++++++++++++ *
.subckt Diver 1 2 3 4 5
*.DEVICECLIMB
** N=5 EP=5 FDC=0
X0 1 M1_PO_CDNS_7656670524441 $T=1260 -2440 0 0 $X=1160 $Y=-2560
X1 5 M1_PO_CDNS_7656670524441 $T=2200 -2440 0 0 $X=2100 $Y=-2560
X2 2 2 1 5 3 pmos1v_CDNS_765667052440 $T=1340 -2060 0 0 $X=920 $Y=-2260
X3 2 2 5 4 3 pmos1v_CDNS_765667052440 $T=2270 -2060 0 0 $X=1850 $Y=-2260
X4 3 3 1 5 nmos1v_CDNS_765667052441 $T=1340 -3070 0 0 $X=920 $Y=-3630
X5 3 3 5 4 nmos1v_CDNS_765667052441 $T=2270 -3070 0 0 $X=1850 $Y=-3630
.ends Diver

* +++++++++++++++++++++++++++++++++++++++++++++++++++++++++ *
* Sub cell: M2_M1_CDNS_7656670524443                        *
* +++++++++++++++++++++++++++++++++++++++++++++++++++++++++ *
.subckt M2_M1_CDNS_7656670524443 1
** N=1 EP=1 FDC=0
.ends M2_M1_CDNS_7656670524443

* +++++++++++++++++++++++++++++++++++++++++++++++++++++++++ *
* Sub cell: M1_PO_CDNS_7656670524444                        *
* +++++++++++++++++++++++++++++++++++++++++++++++++++++++++ *
.subckt M1_PO_CDNS_7656670524444 1
** N=1 EP=1 FDC=0
.ends M1_PO_CDNS_7656670524444

* +++++++++++++++++++++++++++++++++++++++++++++++++++++++++ *
* Sub cell: M2_M1_CDNS_7656670524445                        *
* +++++++++++++++++++++++++++++++++++++++++++++++++++++++++ *
.subckt M2_M1_CDNS_7656670524445 1
** N=1 EP=1 FDC=0
.ends M2_M1_CDNS_7656670524445

* +++++++++++++++++++++++++++++++++++++++++++++++++++++++++ *
* Sub cell: M1_PO_CDNS_7656670524446                        *
* +++++++++++++++++++++++++++++++++++++++++++++++++++++++++ *
.subckt M1_PO_CDNS_7656670524446 1
** N=1 EP=1 FDC=0
.ends M1_PO_CDNS_7656670524446

* +++++++++++++++++++++++++++++++++++++++++++++++++++++++++ *
* Sub cell: pmos1v_CDNS_765667052442                        *
* +++++++++++++++++++++++++++++++++++++++++++++++++++++++++ *
.subckt pmos1v_CDNS_765667052442 1 2 3 4 5
*.DEVICECLIMB
** N=5 EP=5 FDC=0
.ends pmos1v_CDNS_765667052442

* +++++++++++++++++++++++++++++++++++++++++++++++++++++++++ *
* Sub cell: nmos1v_CDNS_765667052443                        *
* +++++++++++++++++++++++++++++++++++++++++++++++++++++++++ *
.subckt nmos1v_CDNS_765667052443 1 2 3
** N=3 EP=3 FDC=1
M0 3 2 1 1 g45n1svt L=4.5e-08 W=1.2e-07 AD=1.92e-14 AS=1.68e-14 PD=5.6e-07 PS=5.2e-07 fw=1.2e-07 sa=1.4e-07 sb=3.45e-07 sca=3.69959 scb=0.00013007 scc=4.39142e-09 $X=0 $Y=0 $dt=0
.ends nmos1v_CDNS_765667052443

* +++++++++++++++++++++++++++++++++++++++++++++++++++++++++ *
* Sub cell: pmos1v_CDNS_765667052444                        *
* +++++++++++++++++++++++++++++++++++++++++++++++++++++++++ *
.subckt pmos1v_CDNS_765667052444 1 2 3 4
*.DEVICECLIMB
** N=4 EP=4 FDC=0
.ends pmos1v_CDNS_765667052444

* +++++++++++++++++++++++++++++++++++++++++++++++++++++++++ *
* Sub cell: pmos1v_CDNS_765667052445                        *
* +++++++++++++++++++++++++++++++++++++++++++++++++++++++++ *
.subckt pmos1v_CDNS_765667052445 1 2 3 4
*.DEVICECLIMB
** N=4 EP=4 FDC=0
.ends pmos1v_CDNS_765667052445

* +++++++++++++++++++++++++++++++++++++++++++++++++++++++++ *
* Sub cell: pmos1v_CDNS_765667052446                        *
* +++++++++++++++++++++++++++++++++++++++++++++++++++++++++ *
.subckt pmos1v_CDNS_765667052446 1 2 3 4 5
*.DEVICECLIMB
** N=5 EP=5 FDC=0
.ends pmos1v_CDNS_765667052446

* +++++++++++++++++++++++++++++++++++++++++++++++++++++++++ *
* Sub cell: nmos1v_CDNS_765667052447                        *
* +++++++++++++++++++++++++++++++++++++++++++++++++++++++++ *
.subckt nmos1v_CDNS_765667052447 1 2 3 4
*.DEVICECLIMB
** N=4 EP=4 FDC=0
.ends nmos1v_CDNS_765667052447

* +++++++++++++++++++++++++++++++++++++++++++++++++++++++++ *
* Sub cell: nmos1v_CDNS_765667052448                        *
* +++++++++++++++++++++++++++++++++++++++++++++++++++++++++ *
.subckt nmos1v_CDNS_765667052448 1 2 3 4
*.DEVICECLIMB
** N=4 EP=4 FDC=0
.ends nmos1v_CDNS_765667052448

* +++++++++++++++++++++++++++++++++++++++++++++++++++++++++ *
* Sub cell: nmos1v_CDNS_765667052449                        *
* +++++++++++++++++++++++++++++++++++++++++++++++++++++++++ *
.subckt nmos1v_CDNS_765667052449 1 2 3 4
** N=4 EP=4 FDC=1
M0 2 1 3 4 g45n1svt L=4.5e-08 W=1.2e-07 AD=1.92e-14 AS=7.2e-15 PD=5.6e-07 PS=3.6e-07 fw=1.2e-07 sa=4.5e-07 sb=3.45e-07 sca=3.69959 scb=0.00013007 scc=4.39142e-09 $X=0 $Y=0 $dt=0
.ends nmos1v_CDNS_765667052449

* +++++++++++++++++++++++++++++++++++++++++++++++++++++++++ *
* Sub cell: nmos1v_CDNS_7656670524410                       *
* +++++++++++++++++++++++++++++++++++++++++++++++++++++++++ *
.subckt nmos1v_CDNS_7656670524410 1 2 3
** N=3 EP=3 FDC=1
M0 3 2 1 1 g45n1svt L=4.5e-08 W=1.2e-07 AD=7.2e-15 AS=1.92e-14 PD=3.6e-07 PS=5.6e-07 fw=1.2e-07 sa=3.45e-07 sb=4.5e-07 sca=3.69959 scb=0.00013007 scc=4.39142e-09 $X=0 $Y=0 $dt=0
.ends nmos1v_CDNS_7656670524410

* +++++++++++++++++++++++++++++++++++++++++++++++++++++++++ *
* Sub cell: pmos1v_CDNS_7656670524411                       *
* +++++++++++++++++++++++++++++++++++++++++++++++++++++++++ *
.subckt pmos1v_CDNS_7656670524411 1 2 3 4
*.DEVICECLIMB
** N=4 EP=4 FDC=0
.ends pmos1v_CDNS_7656670524411

* +++++++++++++++++++++++++++++++++++++++++++++++++++++++++ *
* Sub cell: pmos1v_CDNS_7656670524412                       *
* +++++++++++++++++++++++++++++++++++++++++++++++++++++++++ *
.subckt pmos1v_CDNS_7656670524412 1 2 3 4 5
*.DEVICECLIMB
** N=5 EP=5 FDC=0
.ends pmos1v_CDNS_7656670524412

* +++++++++++++++++++++++++++++++++++++++++++++++++++++++++ *
* Sub cell: HAdder                                          *
* +++++++++++++++++++++++++++++++++++++++++++++++++++++++++ *
.subckt HAdder 1 2 3 4 5 6 7 8 9 10
+ 11 12
*.DEVICECLIMB
** N=12 EP=12 FDC=8
X0 1 M2_M1_CDNS_765667052446 $T=2220 -7390 0 90 $X=2090 $Y=-7470
X1 1 M2_M1_CDNS_765667052446 $T=2220 -4680 0 90 $X=2090 $Y=-4760
X2 7 M2_M1_CDNS_765667052446 $T=4200 -2840 0 90 $X=4070 $Y=-2920
X3 8 M2_M1_CDNS_765667052446 $T=4570 -3920 0 90 $X=4440 $Y=-4000
X4 9 M2_M1_CDNS_765667052448 $T=1300 -5710 0 90 $X=1170 $Y=-5840
X5 9 M2_M1_CDNS_765667052448 $T=1300 -4270 0 90 $X=1170 $Y=-4400
X6 6 6 4 8 2 pmos1v_CDNS_765667052440 $T=5520 -3500 0 270 $X=5320 $Y=-4010
X7 6 6 5 7 2 pmos1v_CDNS_765667052440 $T=5520 -2570 0 270 $X=5320 $Y=-3080
X8 2 2 4 8 nmos1v_CDNS_765667052441 $T=1570 -3500 0 270 $X=1010 $Y=-4010
X9 2 2 5 7 nmos1v_CDNS_765667052441 $T=1580 -2570 0 270 $X=1020 $Y=-3080
X10 8 M2_M1_CDNS_7656670524443 $T=2340 -4370 0 90 $X=2090 $Y=-4450
X11 8 M2_M1_CDNS_7656670524443 $T=2930 -6480 0 90 $X=2680 $Y=-6560
X12 8 M2_M1_CDNS_7656670524443 $T=2950 -5710 0 90 $X=2700 $Y=-5790
X13 4 M2_M1_CDNS_7656670524443 $T=3490 -4140 0 90 $X=3240 $Y=-4220
X14 4 M2_M1_CDNS_7656670524443 $T=3500 -3460 0 90 $X=3250 $Y=-3540
X15 10 M2_M1_CDNS_7656670524443 $T=5640 -5920 0 90 $X=5390 $Y=-6000
X16 10 M2_M1_CDNS_7656670524443 $T=5640 -5080 0 90 $X=5390 $Y=-5160
X17 10 M2_M1_CDNS_7656670524443 $T=5640 -4300 0 90 $X=5390 $Y=-4380
X18 8 M1_PO_CDNS_7656670524444 $T=2340 -4370 0 90 $X=2090 $Y=-4470
X19 8 M1_PO_CDNS_7656670524444 $T=2930 -6480 0 90 $X=2680 $Y=-6580
X20 8 M1_PO_CDNS_7656670524444 $T=2950 -5710 0 90 $X=2700 $Y=-5810
X21 4 M1_PO_CDNS_7656670524444 $T=3490 -4140 0 90 $X=3240 $Y=-4240
X22 4 M1_PO_CDNS_7656670524444 $T=3500 -3460 0 90 $X=3250 $Y=-3560
X23 4 M2_M1_CDNS_7656670524445 $T=3500 -4810 0 0 $X=3250 $Y=-4940
X24 4 M2_M1_CDNS_7656670524445 $T=3500 -1930 0 0 $X=3250 $Y=-2060
X25 7 M2_M1_CDNS_7656670524445 $T=4210 -6730 0 0 $X=3960 $Y=-6860
X26 7 M2_M1_CDNS_7656670524445 $T=4210 -5370 0 0 $X=3960 $Y=-5500
X27 8 M2_M1_CDNS_7656670524445 $T=4540 -5740 0 0 $X=4290 $Y=-5870
X28 5 M2_M1_CDNS_7656670524445 $T=4960 -4960 0 0 $X=4710 $Y=-5090
X29 5 M2_M1_CDNS_7656670524445 $T=4960 -2500 0 0 $X=4710 $Y=-2630
X30 4 M1_PO_CDNS_7656670524446 $T=3500 -4810 0 0 $X=3260 $Y=-4910
X31 7 M1_PO_CDNS_7656670524446 $T=4210 -6730 0 0 $X=3970 $Y=-6830
X32 7 M1_PO_CDNS_7656670524446 $T=4210 -5370 0 0 $X=3970 $Y=-5470
X33 8 M1_PO_CDNS_7656670524446 $T=4540 -5740 0 0 $X=4300 $Y=-5840
X34 5 M1_PO_CDNS_7656670524446 $T=4960 -4960 0 0 $X=4720 $Y=-5060
X35 5 M1_PO_CDNS_7656670524446 $T=4960 -2500 0 0 $X=4720 $Y=-2600
X36 1 5 10 2 6 pmos1v_CDNS_765667052442 $T=5520 -4930 1 90 $X=5320 $Y=-5170
X37 2 7 3 nmos1v_CDNS_765667052443 $T=1570 -6890 1 90 $X=1370 $Y=-7310
X38 10 6 7 2 pmos1v_CDNS_765667052444 $T=5520 -5340 1 90 $X=5320 $Y=-5700
X39 6 8 11 2 pmos1v_CDNS_765667052445 $T=5520 -6590 0 270 $X=5320 $Y=-6880
X40 3 7 11 2 6 pmos1v_CDNS_765667052446 $T=5520 -6800 0 270 $X=5320 $Y=-7310
X41 2 3 8 2 nmos1v_CDNS_765667052447 $T=1570 -6390 0 270 $X=1370 $Y=-6840
X42 9 1 8 2 nmos1v_CDNS_765667052447 $T=1570 -4430 0 270 $X=1370 $Y=-4880
X43 9 7 2 2 nmos1v_CDNS_765667052448 $T=1570 -5460 0 270 $X=1370 $Y=-5970
X44 4 1 12 2 nmos1v_CDNS_765667052449 $T=1570 -4930 1 90 $X=1370 $Y=-5130
X45 2 5 12 nmos1v_CDNS_7656670524410 $T=1570 -5140 1 90 $X=1370 $Y=-5500
X46 10 8 6 2 pmos1v_CDNS_7656670524411 $T=5520 -5660 0 270 $X=5320 $Y=-6170
X47 10 4 1 2 6 pmos1v_CDNS_7656670524412 $T=5520 -4430 0 270 $X=5320 $Y=-4760
M0 2 8 3 2 g45n1svt L=4.5e-08 W=1.2e-07 AD=1.68e-14 AS=1.92e-14 PD=5.2e-07 PS=5.6e-07 fw=1.2e-07 sa=3.45e-07 sb=1.4e-07 sca=3.69959 scb=0.00013007 scc=4.39142e-09 $X=1570 $Y=-6480 $dt=0
M1 2 7 9 2 g45n1svt L=4.5e-08 W=1.2e-07 AD=1.92e-14 AS=1.68e-14 PD=5.6e-07 PS=5.2e-07 fw=1.2e-07 sa=1.4e-07 sb=6.55e-07 sca=3.69959 scb=0.00013007 scc=4.39142e-09 $X=1570 $Y=-5550 $dt=0
M2 9 8 1 2 g45n1svt L=4.5e-08 W=1.2e-07 AD=1.68e-14 AS=1.92e-14 PD=5.2e-07 PS=5.6e-07 fw=1.2e-07 sa=6.55e-07 sb=1.4e-07 sca=3.69959 scb=0.00013007 scc=4.39142e-09 $X=1570 $Y=-4520 $dt=0
M3 2 4 8 2 g45n1svt L=4.5e-08 W=1.2e-07 AD=1.68e-14 AS=1.68e-14 PD=5.2e-07 PS=5.2e-07 fw=1.2e-07 sa=1.4e-07 sb=1.4e-07 sca=3.69959 scb=0.00013007 scc=4.39142e-09 $X=1570 $Y=-3590 $dt=0
M4 2 5 7 2 g45n1svt L=4.5e-08 W=1.2e-07 AD=1.68e-14 AS=1.68e-14 PD=5.2e-07 PS=5.2e-07 fw=1.2e-07 sa=1.4e-07 sb=1.4e-07 sca=3.69959 scb=0.00013007 scc=4.39142e-09 $X=1580 $Y=-2660 $dt=0
.ends HAdder

* +++++++++++++++++++++++++++++++++++++++++++++++++++++++++ *
* Sub cell: nmos1v_CDNS_7656670524413                       *
* +++++++++++++++++++++++++++++++++++++++++++++++++++++++++ *
.subckt nmos1v_CDNS_7656670524413 1 2 3
*.DEVICECLIMB
** N=3 EP=3 FDC=0
.ends nmos1v_CDNS_7656670524413

* +++++++++++++++++++++++++++++++++++++++++++++++++++++++++ *
* Sub cell: pmos1v_CDNS_7656670524414                       *
* +++++++++++++++++++++++++++++++++++++++++++++++++++++++++ *
.subckt pmos1v_CDNS_7656670524414 1 2 3 4
*.DEVICECLIMB
** N=4 EP=4 FDC=0
.ends pmos1v_CDNS_7656670524414

* +++++++++++++++++++++++++++++++++++++++++++++++++++++++++ *
* Sub cell: nmos1v_CDNS_7656670524415                       *
* +++++++++++++++++++++++++++++++++++++++++++++++++++++++++ *
.subckt nmos1v_CDNS_7656670524415 1 2 3
*.DEVICECLIMB
** N=3 EP=3 FDC=0
.ends nmos1v_CDNS_7656670524415

* +++++++++++++++++++++++++++++++++++++++++++++++++++++++++ *
* Sub cell: pmos1v_CDNS_7656670524416                       *
* +++++++++++++++++++++++++++++++++++++++++++++++++++++++++ *
.subckt pmos1v_CDNS_7656670524416 1 2 3 4
*.DEVICECLIMB
** N=4 EP=4 FDC=0
.ends pmos1v_CDNS_7656670524416

* +++++++++++++++++++++++++++++++++++++++++++++++++++++++++ *
* Sub cell: pmos1v_CDNS_7656670524417                       *
* +++++++++++++++++++++++++++++++++++++++++++++++++++++++++ *
.subckt pmos1v_CDNS_7656670524417 1 2 3 4
*.DEVICECLIMB
** N=4 EP=4 FDC=0
.ends pmos1v_CDNS_7656670524417

* +++++++++++++++++++++++++++++++++++++++++++++++++++++++++ *
* Sub cell: nmos1v_CDNS_7656670524418                       *
* +++++++++++++++++++++++++++++++++++++++++++++++++++++++++ *
.subckt nmos1v_CDNS_7656670524418 1 2 3 4
*.DEVICECLIMB
** N=4 EP=4 FDC=0
.ends nmos1v_CDNS_7656670524418

* +++++++++++++++++++++++++++++++++++++++++++++++++++++++++ *
* Sub cell: AND                                             *
* +++++++++++++++++++++++++++++++++++++++++++++++++++++++++ *
.subckt AND 1 2 3 4 5 6 7
*.DEVICECLIMB
** N=7 EP=7 FDC=0
X0 5 M3_M2_CDNS_765667052445 $T=5170 -2000 0 0 $X=5090 $Y=-2250
X1 1 M2_M1_CDNS_765667052446 $T=1510 -2070 0 0 $X=1430 $Y=-2200
X2 1 M2_M1_CDNS_765667052446 $T=3010 -2070 0 0 $X=2930 $Y=-2200
X3 5 M2_M1_CDNS_7656670524429 $T=5170 -2000 0 0 $X=5090 $Y=-2250
X4 2 M1_PO_CDNS_7656670524441 $T=1870 -1670 0 0 $X=1770 $Y=-1790
X5 1 M1_PO_CDNS_7656670524441 $T=2510 -2070 0 0 $X=2410 $Y=-2190
X6 6 M1_PO_CDNS_7656670524441 $T=4500 -2020 0 0 $X=4400 $Y=-2140
X7 4 5 6 nmos1v_CDNS_7656670524413 $T=4560 -2770 0 0 $X=3980 $Y=-2970
X8 3 5 6 4 pmos1v_CDNS_7656670524414 $T=4560 -1510 0 0 $X=3880 $Y=-1710
X9 4 1 7 nmos1v_CDNS_7656670524415 $T=2230 -2760 1 180 $X=1940 $Y=-2960
X10 3 2 6 4 pmos1v_CDNS_7656670524416 $T=1930 -1320 0 0 $X=1250 $Y=-1520
X11 3 6 1 4 pmos1v_CDNS_7656670524417 $T=2430 -1320 1 180 $X=1980 $Y=-1520
X12 6 2 7 4 nmos1v_CDNS_7656670524418 $T=2020 -2760 1 180 $X=1510 $Y=-2960
.ends AND

* +++++++++++++++++++++++++++++++++++++++++++++++++++++++++ *
* Sub cell: MASCO__Y1                                       *
* +++++++++++++++++++++++++++++++++++++++++++++++++++++++++ *
.subckt MASCO__Y1 1 2 3 4 5 6 7 8
** N=8 EP=8 FDC=0
X0 1 M2_M1_CDNS_7656670524429 $T=80 250 0 0 $X=0 $Y=0
X1 2 M2_M1_CDNS_7656670524429 $T=480 250 0 0 $X=400 $Y=0
X2 3 M2_M1_CDNS_7656670524429 $T=880 250 0 0 $X=800 $Y=0
X3 4 M2_M1_CDNS_7656670524429 $T=1280 250 0 0 $X=1200 $Y=0
X4 5 M2_M1_CDNS_7656670524429 $T=1680 250 0 0 $X=1600 $Y=0
X5 6 M2_M1_CDNS_7656670524429 $T=2080 250 0 0 $X=2000 $Y=0
X6 7 M2_M1_CDNS_7656670524429 $T=2480 250 0 0 $X=2400 $Y=0
X7 8 M2_M1_CDNS_7656670524429 $T=2880 250 0 0 $X=2800 $Y=0
.ends MASCO__Y1

* +++++++++++++++++++++++++++++++++++++++++++++++++++++++++ *
* Sub cell: MASCO__Y2                                       *
* +++++++++++++++++++++++++++++++++++++++++++++++++++++++++ *
.subckt MASCO__Y2 1 2 3 4 5 6 7 8
** N=8 EP=8 FDC=0
X0 1 M3_M2_CDNS_765667052445 $T=80 250 0 0 $X=0 $Y=0
X1 2 M3_M2_CDNS_765667052445 $T=480 250 0 0 $X=400 $Y=0
X2 3 M3_M2_CDNS_765667052445 $T=880 250 0 0 $X=800 $Y=0
X3 4 M3_M2_CDNS_765667052445 $T=1280 250 0 0 $X=1200 $Y=0
X4 5 M3_M2_CDNS_765667052445 $T=1680 250 0 0 $X=1600 $Y=0
X5 6 M3_M2_CDNS_765667052445 $T=2080 250 0 0 $X=2000 $Y=0
X6 7 M3_M2_CDNS_765667052445 $T=2480 250 0 0 $X=2400 $Y=0
X7 8 M3_M2_CDNS_765667052445 $T=2880 250 0 0 $X=2800 $Y=0
.ends MASCO__Y2

* +++++++++++++++++++++++++++++++++++++++++++++++++++++++++ *
* Sub cell: WallaceMultiplier                               *
* +++++++++++++++++++++++++++++++++++++++++++++++++++++++++ *
.subckt WallaceMultiplier 1 2 3 4 5 6 7 8 9 10
+ 11 12 13 14 15 16 17 18 19 20
+ 21 22 23 24 25 26 27 28 29 30
+ 31 32 33 34 35 36 37 38 39 40
+ 41 42 43 44 45 46 47 48 49 50
+ 51 52 53 54 55 56 57 58 59 60
+ 61 62 63 64 65 66 67 68 69 70
+ 71 72 73 74 75 76 77 78 79 80
+ 81 82
** N=210 EP=82 FDC=384
X0 1 M3_M2_CDNS_765667052445 $T=3380 31230 0 0 $X=3300 $Y=30980
X1 1 M3_M2_CDNS_765667052445 $T=3380 33140 0 0 $X=3300 $Y=32890
X2 1 M3_M2_CDNS_765667052445 $T=3380 34600 0 0 $X=3300 $Y=34350
X3 1 M3_M2_CDNS_765667052445 $T=3380 37680 0 0 $X=3300 $Y=37430
X4 1 M3_M2_CDNS_765667052445 $T=3380 39140 0 0 $X=3300 $Y=38890
X5 1 M3_M2_CDNS_765667052445 $T=3380 42220 0 0 $X=3300 $Y=41970
X6 1 M3_M2_CDNS_765667052445 $T=3380 43680 0 0 $X=3300 $Y=43430
X7 1 M3_M2_CDNS_765667052445 $T=3380 46750 0 0 $X=3300 $Y=46500
X8 1 M3_M2_CDNS_765667052445 $T=3380 48210 0 0 $X=3300 $Y=47960
X9 18 M3_M2_CDNS_765667052445 $T=8570 31230 0 0 $X=8490 $Y=30980
X10 18 M3_M2_CDNS_765667052445 $T=8570 33140 0 0 $X=8490 $Y=32890
X11 18 M3_M2_CDNS_765667052445 $T=8570 34600 0 0 $X=8490 $Y=34350
X12 18 M3_M2_CDNS_765667052445 $T=8570 37680 0 0 $X=8490 $Y=37430
X13 18 M3_M2_CDNS_765667052445 $T=8570 39140 0 0 $X=8490 $Y=38890
X14 18 M3_M2_CDNS_765667052445 $T=8570 42220 0 0 $X=8490 $Y=41970
X15 18 M3_M2_CDNS_765667052445 $T=8570 43680 0 0 $X=8490 $Y=43430
X16 18 M3_M2_CDNS_765667052445 $T=8570 46750 0 0 $X=8490 $Y=46500
X17 18 M3_M2_CDNS_765667052445 $T=8570 48210 0 0 $X=8490 $Y=47960
X18 26 M3_M2_CDNS_765667052445 $T=13600 31060 0 0 $X=13520 $Y=30810
X19 26 M3_M2_CDNS_765667052445 $T=13600 33140 0 0 $X=13520 $Y=32890
X20 26 M3_M2_CDNS_765667052445 $T=13600 34600 0 0 $X=13520 $Y=34350
X21 26 M3_M2_CDNS_765667052445 $T=13600 37680 0 0 $X=13520 $Y=37430
X22 26 M3_M2_CDNS_765667052445 $T=13600 39140 0 0 $X=13520 $Y=38890
X23 26 M3_M2_CDNS_765667052445 $T=13600 42220 0 0 $X=13520 $Y=41970
X24 26 M3_M2_CDNS_765667052445 $T=13600 43680 0 0 $X=13520 $Y=43430
X25 26 M3_M2_CDNS_765667052445 $T=13600 46750 0 0 $X=13520 $Y=46500
X26 26 M3_M2_CDNS_765667052445 $T=13600 48210 0 0 $X=13520 $Y=47960
X27 35 M3_M2_CDNS_765667052445 $T=18750 31230 0 0 $X=18670 $Y=30980
X28 35 M3_M2_CDNS_765667052445 $T=18750 33140 0 0 $X=18670 $Y=32890
X29 35 M3_M2_CDNS_765667052445 $T=18750 34600 0 0 $X=18670 $Y=34350
X30 35 M3_M2_CDNS_765667052445 $T=18750 37680 0 0 $X=18670 $Y=37430
X31 35 M3_M2_CDNS_765667052445 $T=18750 39140 0 0 $X=18670 $Y=38890
X32 35 M3_M2_CDNS_765667052445 $T=18750 42220 0 0 $X=18670 $Y=41970
X33 35 M3_M2_CDNS_765667052445 $T=18750 43680 0 0 $X=18670 $Y=43430
X34 35 M3_M2_CDNS_765667052445 $T=18750 46750 0 0 $X=18670 $Y=46500
X35 35 M3_M2_CDNS_765667052445 $T=18750 48210 0 0 $X=18670 $Y=47960
X36 44 M3_M2_CDNS_765667052445 $T=23840 31230 0 0 $X=23760 $Y=30980
X37 44 M3_M2_CDNS_765667052445 $T=23840 33140 0 0 $X=23760 $Y=32890
X38 44 M3_M2_CDNS_765667052445 $T=23840 34600 0 0 $X=23760 $Y=34350
X39 44 M3_M2_CDNS_765667052445 $T=23840 37680 0 0 $X=23760 $Y=37430
X40 44 M3_M2_CDNS_765667052445 $T=23840 39140 0 0 $X=23760 $Y=38890
X41 44 M3_M2_CDNS_765667052445 $T=23840 42220 0 0 $X=23760 $Y=41970
X42 44 M3_M2_CDNS_765667052445 $T=23840 43680 0 0 $X=23760 $Y=43430
X43 44 M3_M2_CDNS_765667052445 $T=23840 46750 0 0 $X=23760 $Y=46500
X44 44 M3_M2_CDNS_765667052445 $T=23840 48210 0 0 $X=23760 $Y=47960
X45 53 M3_M2_CDNS_765667052445 $T=28730 31230 0 0 $X=28650 $Y=30980
X46 53 M3_M2_CDNS_765667052445 $T=28730 33140 0 0 $X=28650 $Y=32890
X47 53 M3_M2_CDNS_765667052445 $T=28730 34600 0 0 $X=28650 $Y=34350
X48 53 M3_M2_CDNS_765667052445 $T=28730 37680 0 0 $X=28650 $Y=37430
X49 53 M3_M2_CDNS_765667052445 $T=28730 39140 0 0 $X=28650 $Y=38890
X50 53 M3_M2_CDNS_765667052445 $T=28730 42220 0 0 $X=28650 $Y=41970
X51 53 M3_M2_CDNS_765667052445 $T=28730 43680 0 0 $X=28650 $Y=43430
X52 53 M3_M2_CDNS_765667052445 $T=28730 46750 0 0 $X=28650 $Y=46500
X53 53 M3_M2_CDNS_765667052445 $T=28730 48210 0 0 $X=28650 $Y=47960
X54 62 M3_M2_CDNS_765667052445 $T=33970 31230 0 0 $X=33890 $Y=30980
X55 62 M3_M2_CDNS_765667052445 $T=33970 33140 0 0 $X=33890 $Y=32890
X56 62 M3_M2_CDNS_765667052445 $T=33970 34600 0 0 $X=33890 $Y=34350
X57 62 M3_M2_CDNS_765667052445 $T=33970 37680 0 0 $X=33890 $Y=37430
X58 62 M3_M2_CDNS_765667052445 $T=33970 39140 0 0 $X=33890 $Y=38890
X59 62 M3_M2_CDNS_765667052445 $T=33970 42220 0 0 $X=33890 $Y=41970
X60 62 M3_M2_CDNS_765667052445 $T=33970 43680 0 0 $X=33890 $Y=43430
X61 62 M3_M2_CDNS_765667052445 $T=33970 46750 0 0 $X=33890 $Y=46500
X62 62 M3_M2_CDNS_765667052445 $T=33970 48210 0 0 $X=33890 $Y=47960
X63 71 M3_M2_CDNS_765667052445 $T=39020 31230 0 0 $X=38940 $Y=30980
X64 71 M3_M2_CDNS_765667052445 $T=39020 33140 0 0 $X=38940 $Y=32890
X65 71 M3_M2_CDNS_765667052445 $T=39020 34600 0 0 $X=38940 $Y=34350
X66 71 M3_M2_CDNS_765667052445 $T=39020 37680 0 0 $X=38940 $Y=37430
X67 71 M3_M2_CDNS_765667052445 $T=39020 39140 0 0 $X=38940 $Y=38890
X68 71 M3_M2_CDNS_765667052445 $T=39020 42220 0 0 $X=38940 $Y=41970
X69 71 M3_M2_CDNS_765667052445 $T=39020 43680 0 0 $X=38940 $Y=43430
X70 71 M3_M2_CDNS_765667052445 $T=39020 46750 0 0 $X=38940 $Y=46500