* +++++++++++++++++++++++++++++++++++++++++++++++++++++++++ *
* CDL Netlist:                                              *
*                                                           *
* Cell Name  : WallaceProjectMAC                            *
* Netlisted  : Sat Dec 13 17:03:17 2025                     *
* PVS Version: 23.11-s036 Wed Jan 17 18:11:41 PST 2024      *
* +++++++++++++++++++++++++++++++++++++++++++++++++++++++++ *
*.LDD
*.DEVTMPLT 0 MN(g45n1svt) _nmos1v ndiff_conn(D) poly_conn(G) ndiff_conn(S) psubstrate(B)
*.DEVTMPLT 1 MP(g45p1svt) _pmos1v pdiff_conn(D) poly_conn(G) pdiff_conn(S) nwell_conn(B)

* +++++++++++++++++++++++++++++++++++++++++++++++++++++++++ *
* Sub cell: M5_M4_CDNS_765663391800                         *
* +++++++++++++++++++++++++++++++++++++++++++++++++++++++++ *
.subckt M5_M4_CDNS_765663391800 1
** N=1 EP=1 FDC=0
.ends M5_M4_CDNS_765663391800

* +++++++++++++++++++++++++++++++++++++++++++++++++++++++++ *
* Sub cell: M5_M4_CDNS_765663391801                         *
* +++++++++++++++++++++++++++++++++++++++++++++++++++++++++ *
.subckt M5_M4_CDNS_765663391801 1
** N=1 EP=1 FDC=0
.ends M5_M4_CDNS_765663391801

* +++++++++++++++++++++++++++++++++++++++++++++++++++++++++ *
* Sub cell: M4_M3_CDNS_765663391802                         *
* +++++++++++++++++++++++++++++++++++++++++++++++++++++++++ *
.subckt M4_M3_CDNS_765663391802 1
** N=1 EP=1 FDC=0
.ends M4_M3_CDNS_765663391802

* +++++++++++++++++++++++++++++++++++++++++++++++++++++++++ *
* Sub cell: M5_M4_CDNS_765663391803                         *
* +++++++++++++++++++++++++++++++++++++++++++++++++++++++++ *
.subckt M5_M4_CDNS_765663391803 1
** N=1 EP=1 FDC=0
.ends M5_M4_CDNS_765663391803

* +++++++++++++++++++++++++++++++++++++++++++++++++++++++++ *
* Sub cell: M4_M3_CDNS_765663391804                         *
* +++++++++++++++++++++++++++++++++++++++++++++++++++++++++ *
.subckt M4_M3_CDNS_765663391804 1
** N=1 EP=1 FDC=0
.ends M4_M3_CDNS_765663391804

* +++++++++++++++++++++++++++++++++++++++++++++++++++++++++ *
* Sub cell: M4_M3_CDNS_765663391805                         *
* +++++++++++++++++++++++++++++++++++++++++++++++++++++++++ *
.subckt M4_M3_CDNS_765663391805 1
** N=1 EP=1 FDC=0
.ends M4_M3_CDNS_765663391805

* +++++++++++++++++++++++++++++++++++++++++++++++++++++++++ *
* Sub cell: M3_M2_CDNS_765663391806                         *
* +++++++++++++++++++++++++++++++++++++++++++++++++++++++++ *
.subckt M3_M2_CDNS_765663391806 1
** N=1 EP=1 FDC=0
.ends M3_M2_CDNS_765663391806

* +++++++++++++++++++++++++++++++++++++++++++++++++++++++++ *
* Sub cell: M5_M4_CDNS_765663391807                         *
* +++++++++++++++++++++++++++++++++++++++++++++++++++++++++ *
.subckt M5_M4_CDNS_765663391807 1
** N=1 EP=1 FDC=0
.ends M5_M4_CDNS_765663391807

* +++++++++++++++++++++++++++++++++++++++++++++++++++++++++ *
* Sub cell: M5_M4_CDNS_765663391808                         *
* +++++++++++++++++++++++++++++++++++++++++++++++++++++++++ *
.subckt M5_M4_CDNS_765663391808 1
** N=1 EP=1 FDC=0
.ends M5_M4_CDNS_765663391808

* +++++++++++++++++++++++++++++++++++++++++++++++++++++++++ *
* Sub cell: M2_M1_CDNS_765663391809                         *
* +++++++++++++++++++++++++++++++++++++++++++++++++++++++++ *
.subckt M2_M1_CDNS_765663391809 1
** N=1 EP=1 FDC=0
.ends M2_M1_CDNS_765663391809

* +++++++++++++++++++++++++++++++++++++++++++++++++++++++++ *
* Sub cell: M4_M3_CDNS_7656633918010                        *
* +++++++++++++++++++++++++++++++++++++++++++++++++++++++++ *
.subckt M4_M3_CDNS_7656633918010 1
** N=1 EP=1 FDC=0
.ends M4_M3_CDNS_7656633918010

* +++++++++++++++++++++++++++++++++++++++++++++++++++++++++ *
* Sub cell: M3_M2_CDNS_7656633918011                        *
* +++++++++++++++++++++++++++++++++++++++++++++++++++++++++ *
.subckt M3_M2_CDNS_7656633918011 1
** N=1 EP=1 FDC=0
.ends M3_M2_CDNS_7656633918011

* +++++++++++++++++++++++++++++++++++++++++++++++++++++++++ *
* Sub cell: M5_M4_CDNS_7656633918012                        *
* +++++++++++++++++++++++++++++++++++++++++++++++++++++++++ *
.subckt M5_M4_CDNS_7656633918012 1
** N=1 EP=1 FDC=0
.ends M5_M4_CDNS_7656633918012

* +++++++++++++++++++++++++++++++++++++++++++++++++++++++++ *
* Sub cell: M4_M3_CDNS_7656633918013                        *
* +++++++++++++++++++++++++++++++++++++++++++++++++++++++++ *
.subckt M4_M3_CDNS_7656633918013 1
** N=1 EP=1 FDC=0
.ends M4_M3_CDNS_7656633918013

* +++++++++++++++++++++++++++++++++++++++++++++++++++++++++ *
* Sub cell: M3_M2_CDNS_7656633918014                        *
* +++++++++++++++++++++++++++++++++++++++++++++++++++++++++ *
.subckt M3_M2_CDNS_7656633918014 1
** N=1 EP=1 FDC=0
.ends M3_M2_CDNS_7656633918014

* +++++++++++++++++++++++++++++++++++++++++++++++++++++++++ *
* Sub cell: M3_M2_CDNS_7656633918017                        *
* +++++++++++++++++++++++++++++++++++++++++++++++++++++++++ *
.subckt M3_M2_CDNS_7656633918017 1
** N=1 EP=1 FDC=0
.ends M3_M2_CDNS_7656633918017

* +++++++++++++++++++++++++++++++++++++++++++++++++++++++++ *
* Sub cell: M5_M4_CDNS_7656633918018                        *
* +++++++++++++++++++++++++++++++++++++++++++++++++++++++++ *
.subckt M5_M4_CDNS_7656633918018 1
** N=1 EP=1 FDC=0
.ends M5_M4_CDNS_7656633918018

* +++++++++++++++++++++++++++++++++++++++++++++++++++++++++ *
* Sub cell: M4_M3_CDNS_7656633918019                        *
* +++++++++++++++++++++++++++++++++++++++++++++++++++++++++ *
.subckt M4_M3_CDNS_7656633918019 1
** N=1 EP=1 FDC=0
.ends M4_M3_CDNS_7656633918019

* +++++++++++++++++++++++++++++++++++++++++++++++++++++++++ *
* Sub cell: M2_M1_CDNS_7656633918020                        *
* +++++++++++++++++++++++++++++++++++++++++++++++++++++++++ *
.subckt M2_M1_CDNS_7656633918020 1
** N=1 EP=1 FDC=0
.ends M2_M1_CDNS_7656633918020

* +++++++++++++++++++++++++++++++++++++++++++++++++++++++++ *
* Sub cell: M3_M2_CDNS_7656633918021                        *
* +++++++++++++++++++++++++++++++++++++++++++++++++++++++++ *
.subckt M3_M2_CDNS_7656633918021 1
** N=1 EP=1 FDC=0
.ends M3_M2_CDNS_7656633918021

* +++++++++++++++++++++++++++++++++++++++++++++++++++++++++ *
* Sub cell: M2_M1_CDNS_7656633918023                        *
* +++++++++++++++++++++++++++++++++++++++++++++++++++++++++ *
.subckt M2_M1_CDNS_7656633918023 1
** N=1 EP=1 FDC=0
.ends M2_M1_CDNS_7656633918023

* +++++++++++++++++++++++++++++++++++++++++++++++++++++++++ *
* Sub cell: M2_M1_CDNS_7656633918025                        *
* +++++++++++++++++++++++++++++++++++++++++++++++++++++++++ *
.subckt M2_M1_CDNS_7656633918025 1
** N=1 EP=1 FDC=0
.ends M2_M1_CDNS_7656633918025

* +++++++++++++++++++++++++++++++++++++++++++++++++++++++++ *
* Sub cell: M3_M2_CDNS_7656633918026                        *
* +++++++++++++++++++++++++++++++++++++++++++++++++++++++++ *
.subckt M3_M2_CDNS_7656633918026 1
** N=1 EP=1 FDC=0
.ends M3_M2_CDNS_7656633918026

* +++++++++++++++++++++++++++++++++++++++++++++++++++++++++ *
* Sub cell: M3_M2_CDNS_7656633918027                        *
* +++++++++++++++++++++++++++++++++++++++++++++++++++++++++ *
.subckt M3_M2_CDNS_7656633918027 1
** N=1 EP=1 FDC=0
.ends M3_M2_CDNS_7656633918027

* +++++++++++++++++++++++++++++++++++++++++++++++++++++++++ *
* Sub cell: M2_M1_CDNS_7656633918028                        *
* +++++++++++++++++++++++++++++++++++++++++++++++++++++++++ *
.subckt M2_M1_CDNS_7656633918028 1
** N=1 EP=1 FDC=0
.ends M2_M1_CDNS_7656633918028

* +++++++++++++++++++++++++++++++++++++++++++++++++++++++++ *
* Sub cell: M3_M2_CDNS_7656633918029                        *
* +++++++++++++++++++++++++++++++++++++++++++++++++++++++++ *
.subckt M3_M2_CDNS_7656633918029 1
** N=1 EP=1 FDC=0
.ends M3_M2_CDNS_7656633918029

* +++++++++++++++++++++++++++++++++++++++++++++++++++++++++ *
* Sub cell: M4_M3_CDNS_7656633918030                        *
* +++++++++++++++++++++++++++++++++++++++++++++++++++++++++ *
.subckt M4_M3_CDNS_7656633918030 1
** N=1 EP=1 FDC=0
.ends M4_M3_CDNS_7656633918030

* +++++++++++++++++++++++++++++++++++++++++++++++++++++++++ *
* Sub cell: M3_M2_CDNS_7656633918031                        *
* +++++++++++++++++++++++++++++++++++++++++++++++++++++++++ *
.subckt M3_M2_CDNS_7656633918031 1
** N=1 EP=1 FDC=0
.ends M3_M2_CDNS_7656633918031

* +++++++++++++++++++++++++++++++++++++++++++++++++++++++++ *
* Sub cell: M3_M2_CDNS_7656633918034                        *
* +++++++++++++++++++++++++++++++++++++++++++++++++++++++++ *
.subckt M3_M2_CDNS_7656633918034 1
** N=1 EP=1 FDC=0
.ends M3_M2_CDNS_7656633918034

* +++++++++++++++++++++++++++++++++++++++++++++++++++++++++ *
* Sub cell: M3_M2_CDNS_7656633918035                        *
* +++++++++++++++++++++++++++++++++++++++++++++++++++++++++ *
.subckt M3_M2_CDNS_7656633918035 1
** N=1 EP=1 FDC=0
.ends M3_M2_CDNS_7656633918035

* +++++++++++++++++++++++++++++++++++++++++++++++++++++++++ *
* Sub cell: M4_M3_CDNS_7656633918036                        *
* +++++++++++++++++++++++++++++++++++++++++++++++++++++++++ *
.subckt M4_M3_CDNS_7656633918036 1
** N=1 EP=1 FDC=0
.ends M4_M3_CDNS_7656633918036

* +++++++++++++++++++++++++++++++++++++++++++++++++++++++++ *
* Sub cell: M2_M1_CDNS_7656633918037                        *
* +++++++++++++++++++++++++++++++++++++++++++++++++++++++++ *
.subckt M2_M1_CDNS_7656633918037 1
** N=1 EP=1 FDC=0
.ends M2_M1_CDNS_7656633918037

* +++++++++++++++++++++++++++++++++++++++++++++++++++++++++ *
* Sub cell: M3_M2_CDNS_7656633918038                        *
* +++++++++++++++++++++++++++++++++++++++++++++++++++++++++ *
.subckt M3_M2_CDNS_7656633918038 1
** N=1 EP=1 FDC=0
.ends M3_M2_CDNS_7656633918038

* +++++++++++++++++++++++++++++++++++++++++++++++++++++++++ *
* Sub cell: M2_M1_CDNS_7656633918042                        *
* +++++++++++++++++++++++++++++++++++++++++++++++++++++++++ *
.subckt M2_M1_CDNS_7656633918042 1
** N=1 EP=1 FDC=0
.ends M2_M1_CDNS_7656633918042

* +++++++++++++++++++++++++++++++++++++++++++++++++++++++++ *
* Sub cell: M3_M2_CDNS_7656633918043                        *
* +++++++++++++++++++++++++++++++++++++++++++++++++++++++++ *
.subckt M3_M2_CDNS_7656633918043 1
** N=1 EP=1 FDC=0
.ends M3_M2_CDNS_7656633918043

* +++++++++++++++++++++++++++++++++++++++++++++++++++++++++ *
* Sub cell: M4_M3_CDNS_7656633918044                        *
* +++++++++++++++++++++++++++++++++++++++++++++++++++++++++ *
.subckt M4_M3_CDNS_7656633918044 1
** N=1 EP=1 FDC=0
.ends M4_M3_CDNS_7656633918044

* +++++++++++++++++++++++++++++++++++++++++++++++++++++++++ *
* Sub cell: M5_M4_CDNS_7656633918045                        *
* +++++++++++++++++++++++++++++++++++++++++++++++++++++++++ *
.subckt M5_M4_CDNS_7656633918045 1
** N=1 EP=1 FDC=0
.ends M5_M4_CDNS_7656633918045

* +++++++++++++++++++++++++++++++++++++++++++++++++++++++++ *
* Sub cell: M7_M6_CDNS_7656633918047                        *
* +++++++++++++++++++++++++++++++++++++++++++++++++++++++++ *
.subckt M7_M6_CDNS_7656633918047 1
** N=1 EP=1 FDC=0
.ends M7_M6_CDNS_7656633918047

* +++++++++++++++++++++++++++++++++++++++++++++++++++++++++ *
* Sub cell: M5_M4_CDNS_7656633918049                        *
* +++++++++++++++++++++++++++++++++++++++++++++++++++++++++ *
.subckt M5_M4_CDNS_7656633918049 1
** N=1 EP=1 FDC=0
.ends M5_M4_CDNS_7656633918049

* +++++++++++++++++++++++++++++++++++++++++++++++++++++++++ *
* Sub cell: M3_M2_CDNS_7656633918050                        *
* +++++++++++++++++++++++++++++++++++++++++++++++++++++++++ *
.subckt M3_M2_CDNS_7656633918050 1
** N=1 EP=1 FDC=0
.ends M3_M2_CDNS_7656633918050

* +++++++++++++++++++++++++++++++++++++++++++++++++++++++++ *
* Sub cell: M7_M6_CDNS_7656633918051                        *
* +++++++++++++++++++++++++++++++++++++++++++++++++++++++++ *
.subckt M7_M6_CDNS_7656633918051 1
** N=1 EP=1 FDC=0
.ends M7_M6_CDNS_7656633918051

* +++++++++++++++++++++++++++++++++++++++++++++++++++++++++ *
* Sub cell: M6_M5_CDNS_7656633918052                        *
* +++++++++++++++++++++++++++++++++++++++++++++++++++++++++ *
.subckt M6_M5_CDNS_7656633918052 1
** N=1 EP=1 FDC=0
.ends M6_M5_CDNS_7656633918052

* +++++++++++++++++++++++++++++++++++++++++++++++++++++++++ *
* Sub cell: M6_M5_CDNS_7656633918053                        *
* +++++++++++++++++++++++++++++++++++++++++++++++++++++++++ *
.subckt M6_M5_CDNS_7656633918053 1
** N=1 EP=1 FDC=0
.ends M6_M5_CDNS_7656633918053

* +++++++++++++++++++++++++++++++++++++++++++++++++++++++++ *
* Sub cell: M3_M2_CDNS_7656633918054                        *
* +++++++++++++++++++++++++++++++++++++++++++++++++++++++++ *
.subckt M3_M2_CDNS_7656633918054 1
** N=1 EP=1 FDC=0
.ends M3_M2_CDNS_7656633918054

* +++++++++++++++++++++++++++++++++++++++++++++++++++++++++ *
* Sub cell: M1_PO_CDNS_7656633918063                        *
* +++++++++++++++++++++++++++++++++++++++++++++++++++++++++ *
.subckt M1_PO_CDNS_7656633918063 1
** N=1 EP=1 FDC=0
.ends M1_PO_CDNS_7656633918063

* +++++++++++++++++++++++++++++++++++++++++++++++++++++++++ *
* Sub cell: M2_M1_CDNS_7656633918064                        *
* +++++++++++++++++++++++++++++++++++++++++++++++++++++++++ *
.subckt M2_M1_CDNS_7656633918064 1
** N=1 EP=1 FDC=0
.ends M2_M1_CDNS_7656633918064

* +++++++++++++++++++++++++++++++++++++++++++++++++++++++++ *
* Sub cell: pmos1v_CDNS_765663391806                        *
* +++++++++++++++++++++++++++++++++++++++++++++++++++++++++ *
.subckt pmos1v_CDNS_765663391806 1 2 3 4 5
*.DEVICECLIMB
** N=5 EP=5 FDC=0
.ends pmos1v_CDNS_765663391806

* +++++++++++++++++++++++++++++++++++++++++++++++++++++++++ *
* Sub cell: nmos1v_CDNS_765663391807                        *
* +++++++++++++++++++++++++++++++++++++++++++++++++++++++++ *
.subckt nmos1v_CDNS_765663391807 1 2 3 4
*.DEVICECLIMB
** N=4 EP=4 FDC=0
.ends nmos1v_CDNS_765663391807

* +++++++++++++++++++++++++++++++++++++++++++++++++++++++++ *
* Sub cell: M2_M1_CDNS_7656633918066                        *
* +++++++++++++++++++++++++++++++++++++++++++++++++++++++++ *
.subckt M2_M1_CDNS_7656633918066 1
** N=1 EP=1 FDC=0
.ends M2_M1_CDNS_7656633918066

* +++++++++++++++++++++++++++++++++++++++++++++++++++++++++ *
* Sub cell: M1_PO_CDNS_7656633918067                        *
* +++++++++++++++++++++++++++++++++++++++++++++++++++++++++ *
.subckt M1_PO_CDNS_7656633918067 1
** N=1 EP=1 FDC=0
.ends M1_PO_CDNS_7656633918067

* +++++++++++++++++++++++++++++++++++++++++++++++++++++++++ *
* Sub cell: pmos1v_CDNS_765663391808                        *
* +++++++++++++++++++++++++++++++++++++++++++++++++++++++++ *
.subckt pmos1v_CDNS_765663391808 1 2 3 4 5
*.DEVICECLIMB
** N=5 EP=5 FDC=0
.ends pmos1v_CDNS_765663391808

* +++++++++++++++++++++++++++++++++++++++++++++++++++++++++ *
* Sub cell: nmos1v_CDNS_765663391809                        *
* +++++++++++++++++++++++++++++++++++++++++++++++++++++++++ *
.subckt nmos1v_CDNS_765663391809 1 2 3
** N=3 EP=3 FDC=1
M0 3 2 1 1 g45n1svt L=4.5e-08 W=1.2e-07 AD=1.92e-14 AS=1.68e-14 PD=5.6e-07 PS=5.2e-07 fw=1.2e-07 sa=1.4e-07 sb=3.45e-07 sca=3.69959 scb=0.00013007 scc=4.39142e-09 $X=0 $Y=0 $dt=0
.ends nmos1v_CDNS_765663391809

* +++++++++++++++++++++++++++++++++++++++++++++++++++++++++ *
* Sub cell: pmos1v_CDNS_7656633918010                       *
* +++++++++++++++++++++++++++++++++++++++++++++++++++++++++ *
.subckt pmos1v_CDNS_7656633918010 1 2 3 4
*.DEVICECLIMB
** N=4 EP=4 FDC=0
.ends pmos1v_CDNS_7656633918010

* +++++++++++++++++++++++++++++++++++++++++++++++++++++++++ *
* Sub cell: pmos1v_CDNS_7656633918011                       *
* +++++++++++++++++++++++++++++++++++++++++++++++++++++++++ *
.subckt pmos1v_CDNS_7656633918011 1 2 3 4
*.DEVICECLIMB
** N=4 EP=4 FDC=0
.ends pmos1v_CDNS_7656633918011

* +++++++++++++++++++++++++++++++++++++++++++++++++++++++++ *
* Sub cell: pmos1v_CDNS_7656633918012                       *
* +++++++++++++++++++++++++++++++++++++++++++++++++++++++++ *
.subckt pmos1v_CDNS_7656633918012 1 2 3 4 5
*.DEVICECLIMB
** N=5 EP=5 FDC=0
.ends pmos1v_CDNS_7656633918012

* +++++++++++++++++++++++++++++++++++++++++++++++++++++++++ *
* Sub cell: nmos1v_CDNS_7656633918013                       *
* +++++++++++++++++++++++++++++++++++++++++++++++++++++++++ *
.subckt nmos1v_CDNS_7656633918013 1 2 3 4
*.DEVICECLIMB
** N=4 EP=4 FDC=0
.ends nmos1v_CDNS_7656633918013

* +++++++++++++++++++++++++++++++++++++++++++++++++++++++++ *
* Sub cell: nmos1v_CDNS_7656633918014                       *
* +++++++++++++++++++++++++++++++++++++++++++++++++++++++++ *
.subckt nmos1v_CDNS_7656633918014 1 2 3 4
*.DEVICECLIMB
** N=4 EP=4 FDC=0
.ends nmos1v_CDNS_7656633918014

* +++++++++++++++++++++++++++++++++++++++++++++++++++++++++ *
* Sub cell: nmos1v_CDNS_7656633918015                       *
* +++++++++++++++++++++++++++++++++++++++++++++++++++++++++ *
.subckt nmos1v_CDNS_7656633918015 1 2 3 4
** N=4 EP=4 FDC=1
M0 2 1 3 4 g45n1svt L=4.5e-08 W=1.2e-07 AD=1.92e-14 AS=7.2e-15 PD=5.6e-07 PS=3.6e-07 fw=1.2e-07 sa=4.5e-07 sb=3.45e-07 sca=3.69959 scb=0.00013007 scc=4.39142e-09 $X=0 $Y=0 $dt=0
.ends nmos1v_CDNS_7656633918015

* +++++++++++++++++++++++++++++++++++++++++++++++++++++++++ *
* Sub cell: nmos1v_CDNS_7656633918016                       *
* +++++++++++++++++++++++++++++++++++++++++++++++++++++++++ *
.subckt nmos1v_CDNS_7656633918016 1 2 3
** N=3 EP=3 FDC=1
M0 3 2 1 1 g45n1svt L=4.5e-08 W=1.2e-07 AD=7.2e-15 AS=1.92e-14 PD=3.6e-07 PS=5.6e-07 fw=1.2e-07 sa=3.45e-07 sb=4.5e-07 sca=3.69959 scb=0.00013007 scc=4.39142e-09 $X=0 $Y=0 $dt=0
.ends nmos1v_CDNS_7656633918016

* +++++++++++++++++++++++++++++++++++++++++++++++++++++++++ *
* Sub cell: pmos1v_CDNS_7656633918017                       *
* +++++++++++++++++++++++++++++++++++++++++++++++++++++++++ *
.subckt pmos1v_CDNS_7656633918017 1 2 3 4
*.DEVICECLIMB
** N=4 EP=4 FDC=0
.ends pmos1v_CDNS_7656633918017

* +++++++++++++++++++++++++++++++++++++++++++++++++++++++++ *
* Sub cell: pmos1v_CDNS_7656633918018                       *
* +++++++++++++++++++++++++++++++++++++++++++++++++++++++++ *
.subckt pmos1v_CDNS_7656633918018 1 2 3 4 5
*.DEVICECLIMB
** N=5 EP=5 FDC=0
.ends pmos1v_CDNS_7656633918018

* +++++++++++++++++++++++++++++++++++++++++++++++++++++++++ *
* Sub cell: HAdder                                          *
* +++++++++++++++++++++++++++++++++++++++++++++++++++++++++ *
.subckt HAdder 1 2 3 4 5 6 7 8 9 10
+ 11 12
*.DEVICECLIMB
** N=12 EP=12 FDC=8
X0 1 M2_M1_CDNS_7656633918020 $T=2220 -7390 0 90 $X=2090 $Y=-7470
X1 1 M2_M1_CDNS_7656633918020 $T=2220 -4680 0 90 $X=2090 $Y=-4760
X2 7 M2_M1_CDNS_7656633918020 $T=4200 -2840 0 90 $X=4070 $Y=-2920
X3 8 M2_M1_CDNS_7656633918020 $T=4570 -3920 0 90 $X=4440 $Y=-4000
X4 9 M2_M1_CDNS_7656633918025 $T=1300 -5710 0 90 $X=1170 $Y=-5840
X5 9 M2_M1_CDNS_7656633918025 $T=1300 -4270 0 90 $X=1170 $Y=-4400
X6 8 M1_PO_CDNS_7656633918063 $T=2340 -4370 0 90 $X=2090 $Y=-4470
X7 8 M1_PO_CDNS_7656633918063 $T=2930 -6480 0 90 $X=2680 $Y=-6580
X8 8 M1_PO_CDNS_7656633918063 $T=2950 -5710 0 90 $X=2700 $Y=-5810
X9 4 M1_PO_CDNS_7656633918063 $T=3490 -4140 0 90 $X=3240 $Y=-4240
X10 4 M1_PO_CDNS_7656633918063 $T=3500 -3460 0 90 $X=3250 $Y=-3560
X11 8 M2_M1_CDNS_7656633918064 $T=2340 -4370 0 90 $X=2090 $Y=-4450
X12 8 M2_M1_CDNS_7656633918064 $T=2930 -6480 0 90 $X=2680 $Y=-6560
X13 8 M2_M1_CDNS_7656633918064 $T=2950 -5710 0 90 $X=2700 $Y=-5790
X14 4 M2_M1_CDNS_7656633918064 $T=3490 -4140 0 90 $X=3240 $Y=-4220
X15 4 M2_M1_CDNS_7656633918064 $T=3500 -3460 0 90 $X=3250 $Y=-3540
X16 10 M2_M1_CDNS_7656633918064 $T=5640 -5920 0 90 $X=5390 $Y=-6000
X17 10 M2_M1_CDNS_7656633918064 $T=5640 -5080 0 90 $X=5390 $Y=-5160
X18 10 M2_M1_CDNS_7656633918064 $T=5640 -4300 0 90 $X=5390 $Y=-4380
X19 6 6 4 8 2 pmos1v_CDNS_765663391806 $T=5520 -3500 0 270 $X=5320 $Y=-4010
X20 6 6 5 7 2 pmos1v_CDNS_765663391806 $T=5520 -2570 0 270 $X=5320 $Y=-3080
X21 2 2 4 8 nmos1v_CDNS_765663391807 $T=1570 -3500 0 270 $X=1010 $Y=-4010
X22 2 2 5 7 nmos1v_CDNS_765663391807 $T=1580 -2570 0 270 $X=1020 $Y=-3080
X23 4 M2_M1_CDNS_7656633918066 $T=3500 -4810 0 0 $X=3250 $Y=-4940
X24 4 M2_M1_CDNS_7656633918066 $T=3500 -1930 0 0 $X=3250 $Y=-2060
X25 7 M2_M1_CDNS_7656633918066 $T=4210 -6730 0 0 $X=3960 $Y=-6860
X26 7 M2_M1_CDNS_7656633918066 $T=4210 -5370 0 0 $X=3960 $Y=-5500
X27 8 M2_M1_CDNS_7656633918066 $T=4540 -5740 0 0 $X=4290 $Y=-5870
X28 5 M2_M1_CDNS_7656633918066 $T=4960 -4960 0 0 $X=4710 $Y=-5090
X29 5 M2_M1_CDNS_7656633918066 $T=4960 -2500 0 0 $X=4710 $Y=-2630
X30 4 M1_PO_CDNS_7656633918067 $T=3500 -4810 0 0 $X=3260 $Y=-4910
X31 7 M1_PO_CDNS_7656633918067 $T=4210 -6730 0 0 $X=3970 $Y=-6830
X32 7 M1_PO_CDNS_7656633918067 $T=4210 -5370 0 0 $X=3970 $Y=-5470
X33 8 M1_PO_CDNS_7656633918067 $T=4540 -5740 0 0 $X=4300 $Y=-5840
X34 5 M1_PO_CDNS_7656633918067 $T=4960 -4960 0 0 $X=4720 $Y=-5060
X35 5 M1_PO_CDNS_7656633918067 $T=4960 -2500 0 0 $X=4720 $Y=-2600
X36 1 5 10 2 6 pmos1v_CDNS_765663391808 $T=5520 -4930 1 90 $X=5320 $Y=-5170
X37 2 7 3 nmos1v_CDNS_765663391809 $T=1570 -6890 1 90 $X=1370 $Y=-7310
X38 10 6 7 2 pmos1v_CDNS_7656633918010 $T=5520 -5340 1 90 $X=5320 $Y=-5700
X39 6 8 11 2 pmos1v_CDNS_7656633918011 $T=5520 -6590 0 270 $X=5320 $Y=-6880
X40 3 7 11 2 6 pmos1v_CDNS_7656633918012 $T=5520 -6800 0 270 $X=5320 $Y=-7310
X41 2 3 8 2 nmos1v_CDNS_7656633918013 $T=1570 -6390 0 270 $X=1370 $Y=-6840
X42 9 1 8 2 nmos1v_CDNS_7656633918013 $T=1570 -4430 0 270 $X=1370 $Y=-4880
X43 9 7 2 2 nmos1v_CDNS_7656633918014 $T=1570 -5460 0 270 $X=1370 $Y=-5970
X44 4 1 12 2 nmos1v_CDNS_7656633918015 $T=1570 -4930 1 90 $X=1370 $Y=-5130
X45 2 5 12 nmos1v_CDNS_7656633918016 $T=1570 -5140 1 90 $X=1370 $Y=-5500
X46 10 8 6 2 pmos1v_CDNS_7656633918017 $T=5520 -5660 0 270 $X=5320 $Y=-6170
X47 10 4 1 2 6 pmos1v_CDNS_7656633918018 $T=5520 -4430 0 270 $X=5320 $Y=-4760
M0 2 8 3 2 g45n1svt L=4.5e-08 W=1.2e-07 AD=1.68e-14 AS=1.92e-14 PD=5.2e-07 PS=5.6e-07 fw=1.2e-07 sa=3.45e-07 sb=1.4e-07 sca=3.69959 scb=0.00013007 scc=4.39142e-09 $X=1570 $Y=-6480 $dt=0
M1 2 7 9 2 g45n1svt L=4.5e-08 W=1.2e-07 AD=1.92e-14 AS=1.68e-14 PD=5.6e-07 PS=5.2e-07 fw=1.2e-07 sa=1.4e-07 sb=6.55e-07 sca=3.69959 scb=0.00013007 scc=4.39142e-09 $X=1570 $Y=-5550 $dt=0
M2 9 8 1 2 g45n1svt L=4.5e-08 W=1.2e-07 AD=1.68e-14 AS=1.92e-14 PD=5.2e-07 PS=5.6e-07 fw=1.2e-07 sa=6.55e-07 sb=1.4e-07 sca=3.69959 scb=0.00013007 scc=4.39142e-09 $X=1570 $Y=-4520 $dt=0
M3 2 4 8 2 g45n1svt L=4.5e-08 W=1.2e-07 AD=1.68e-14 AS=1.68e-14 PD=5.2e-07 PS=5.2e-07 fw=1.2e-07 sa=1.4e-07 sb=1.4e-07 sca=3.69959 scb=0.00013007 scc=4.39142e-09 $X=1570 $Y=-3590 $dt=0
M4 2 5 7 2 g45n1svt L=4.5e-08 W=1.2e-07 AD=1.68e-14 AS=1.68e-14 PD=5.2e-07 PS=5.2e-07 fw=1.2e-07 sa=1.4e-07 sb=1.4e-07 sca=3.69959 scb=0.00013007 scc=4.39142e-09 $X=1580 $Y=-2660 $dt=0
.ends HAdder

* +++++++++++++++++++++++++++++++++++++++++++++++++++++++++ *
* Sub cell: M5_M4_CDNS_7656633918057                        *
* +++++++++++++++++++++++++++++++++++++++++++++++++++++++++ *
.subckt M5_M4_CDNS_7656633918057 1
** N=1 EP=1 FDC=0
.ends M5_M4_CDNS_7656633918057

* +++++++++++++++++++++++++++++++++++++++++++++++++++++++++ *
* Sub cell: M4_M3_CDNS_7656633918058                        *
* +++++++++++++++++++++++++++++++++++++++++++++++++++++++++ *
.subckt M4_M3_CDNS_7656633918058 1
** N=1 EP=1 FDC=0
.ends M4_M3_CDNS_7656633918058

* +++++++++++++++++++++++++++++++++++++++++++++++++++++++++ *
* Sub cell: M3_M2_CDNS_7656633918059                        *
* +++++++++++++++++++++++++++++++++++++++++++++++++++++++++ *
.subckt M3_M2_CDNS_7656633918059 1
** N=1 EP=1 FDC=0
.ends M3_M2_CDNS_7656633918059

* +++++++++++++++++++++++++++++++++++++++++++++++++++++++++ *
* Sub cell: M2_M1_CDNS_7656633918060                        *
* +++++++++++++++++++++++++++++++++++++++++++++++++++++++++ *
.subckt M2_M1_CDNS_7656633918060 1
** N=1 EP=1 FDC=0
.ends M2_M1_CDNS_7656633918060

* +++++++++++++++++++++++++++++++++++++++++++++++++++++++++ *
* Sub cell: M6_M5_CDNS_7656633918061                        *
* +++++++++++++++++++++++++++++++++++++++++++++++++++++++++ *
.subckt M6_M5_CDNS_7656633918061 1
** N=1 EP=1 FDC=0
.ends M6_M5_CDNS_7656633918061

* +++++++++++++++++++++++++++++++++++++++++++++++++++++++++ *
* Sub cell: M1_PO_CDNS_7656633918062                        *
* +++++++++++++++++++++++++++++++++++++++++++++++++++++++++ *
.subckt M1_PO_CDNS_7656633918062 1
** N=1 EP=1 FDC=0
.ends M1_PO_CDNS_7656633918062

* +++++++++++++++++++++++++++++++++++++++++++++++++++++++++ *
* Sub cell: nmos1v_CDNS_765663391800                        *
* +++++++++++++++++++++++++++++++++++++++++++++++++++++++++ *
.subckt nmos1v_CDNS_765663391800 1 2 3
*.DEVICECLIMB
** N=3 EP=3 FDC=0
.ends nmos1v_CDNS_765663391800

* +++++++++++++++++++++++++++++++++++++++++++++++++++++++++ *
* Sub cell: pmos1v_CDNS_765663391801                        *
* +++++++++++++++++++++++++++++++++++++++++++++++++++++++++ *
.subckt pmos1v_CDNS_765663391801 1 2 3 4
*.DEVICECLIMB
** N=4 EP=4 FDC=0
.ends pmos1v_CDNS_765663391801

* +++++++++++++++++++++++++++++++++++++++++++++++++++++++++ *
* Sub cell: nmos1v_CDNS_765663391802                        *
* +++++++++++++++++++++++++++++++++++++++++++++++++++++++++ *
.subckt nmos1v_CDNS_765663391802 1 2 3
*.DEVICECLIMB
** N=3 EP=3 FDC=0
.ends nmos1v_CDNS_765663391802

* +++++++++++++++++++++++++++++++++++++++++++++++++++++++++ *
* Sub cell: pmos1v_CDNS_765663391803                        *
* +++++++++++++++++++++++++++++++++++++++++++++++++++++++++ *
.subckt pmos1v_CDNS_765663391803 1 2 3 4
*.DEVICECLIMB
** N=4 EP=4 FDC=0
.ends pmos1v_CDNS_765663391803

* +++++++++++++++++++++++++++++++++++++++++++++++++++++++++ *
* Sub cell: pmos1v_CDNS_765663391804                        *
* +++++++++++++++++++++++++++++++++++++++++++++++++++++++++ *
.subckt pmos1v_CDNS_765663391804 1 2 3 4
*.DEVICECLIMB
** N=4 EP=4 FDC=0
.ends pmos1v_CDNS_765663391804

* +++++++++++++++++++++++++++++++++++++++++++++++++++++++++ *
* Sub cell: nmos1v_CDNS_765663391805                        *
* +++++++++++++++++++++++++++++++++++++++++++++++++++++++++ *
.subckt nmos1v_CDNS_765663391805 1 2 3 4
*.DEVICECLIMB
** N=4 EP=4 FDC=0
.ends nmos1v_CDNS_765663391805

* +++++++++++++++++++++++++++++++++++++++++++++++++++++++++ *
* Sub cell: AND                                             *
* +++++++++++++++++++++++++++++++++++++++++++++++++++++++++ *
.subckt AND 1 2 3 4 5 6 7
*.DEVICECLIMB
** N=7 EP=7 FDC=0
X0 1 M2_M1_CDNS_7656633918020 $T=1510 -2070 0 0 $X=1430 $Y=-2200
X1 1 M2_M1_CDNS_7656633918020 $T=3010 -2070 0 0 $X=2930 $Y=-2200
X2 5 M3_M2_CDNS_7656633918027 $T=5170 -2000 0 0 $X=5090 $Y=-2250
X3 5 M2_M1_CDNS_7656633918028 $T=5170 -2000 0 0 $X=5090 $Y=-2250
X4 2 M1_PO_CDNS_7656633918062 $T=1870 -1670 0 0 $X=1770 $Y=-1790
X5 1 M1_PO_CDNS_7656633918062 $T=2510 -2070 0 0 $X=2410 $Y=-2190
X6 6 M1_PO_CDNS_7656633918062 $T=4500 -2020 0 0 $X=4400 $Y=-2140
X7 4 5 6 nmos1v_CDNS_765663391800 $T=4560 -2770 0 0 $X=3980 $Y=-2970
X8 3 5 6 4 pmos1v_CDNS_765663391801 $T=4560 -1510 0 0 $X=3880 $Y=-1710
X9 4 1 7 nmos1v_CDNS_765663391802 $T=2230 -2760 1 180 $X=1940 $Y=-2960
X10 3 2 6 4 pmos1v_CDNS_765663391803 $T=1930 -1320 0 0 $X=1250 $Y=-1520
X11 3 6 1 4 pmos1v_CDNS_765663391804 $T=2430 -1320 1 180 $X=1980 $Y=-1520
X12 6 2 7 4 nmos1v_CDNS_765663391805 $T=2020 -2760 1 180 $X=1510 $Y=-2960
.ends AND

* +++++++++++++++++++++++++++++++++++++++++++++++++++++++++ *
* Sub cell: XOR                                             *
* +++++++++++++++++++++++++++++++++++++++++++++++++++++++++ *
.subckt XOR 1 2 3 4 5 6 7
*.DEVICECLIMB
** N=7 EP=7 FDC=4
X0 6 M2_M1_CDNS_7656633918020 $T=690 3330 0 0 $X=610 $Y=3200
X1 1 M2_M1_CDNS_7656633918020 $T=1190 1490 0 0 $X=1110 $Y=1360
X2 1 M2_M1_CDNS_7656633918020 $T=2520 1490 0 0 $X=2440 $Y=1360
X3 6 M2_M1_CDNS_7656633918020 $T=2550 3330 0 0 $X=2470 $Y=3200
X4 4 M5_M4_CDNS_7656633918057 $T=1850 2810 0 90 $X=1600 $Y=2590
X5 4 M4_M3_CDNS_7656633918058 $T=1850 2810 0 90 $X=1600 $Y=2590
X6 4 M3_M2_CDNS_7656633918059 $T=1850 2810 0 90 $X=1600 $Y=2590
X7 4 M2_M1_CDNS_7656633918060 $T=1850 2810 0 90 $X=1600 $Y=2590
X8 4 M6_M5_CDNS_7656633918061 $T=1850 2810 0 90 $X=1600 $Y=2590
X9 7 M1_PO_CDNS_7656633918062 $T=2470 2570 0 0 $X=2370 $Y=2450
X10 1 M1_PO_CDNS_7656633918063 $T=320 1490 0 0 $X=220 $Y=1240
X11 5 M1_PO_CDNS_7656633918063 $T=1540 2050 0 0 $X=1440 $Y=1800
X12 5 M1_PO_CDNS_7656633918063 $T=3400 2050 0 0 $X=3300 $Y=1800
X13 1 M2_M1_CDNS_7656633918064 $T=320 1490 0 0 $X=240 $Y=1240
X14 5 M2_M1_CDNS_7656633918064 $T=1540 2050 0 0 $X=1460 $Y=1800
X15 5 M2_M1_CDNS_7656633918064 $T=3400 2050 0 0 $X=3320 $Y=1800
X16 2 2 1 6 3 pmos1v_CDNS_765663391806 $T=420 3660 0 0 $X=0 $Y=3460
X17 1 2 5 4 3 pmos1v_CDNS_765663391806 $T=1350 3660 0 0 $X=930 $Y=3460
X18 6 2 7 4 3 pmos1v_CDNS_765663391806 $T=2370 3660 1 180 $X=1860 $Y=3460
X19 2 2 5 7 3 pmos1v_CDNS_765663391806 $T=3300 3660 1 180 $X=2790 $Y=3460
X20 3 3 1 6 nmos1v_CDNS_765663391807 $T=420 800 0 0 $X=0 $Y=240
X21 4 3 5 6 nmos1v_CDNS_765663391807 $T=1440 800 1 180 $X=930 $Y=240
X22 4 3 7 1 nmos1v_CDNS_765663391807 $T=2280 800 0 0 $X=1860 $Y=240
X23 3 3 5 7 nmos1v_CDNS_765663391807 $T=3300 800 1 180 $X=2790 $Y=240
M0 6 1 3 3 g45n1svt L=4.5e-08 W=1.2e-07 AD=1.68e-14 AS=1.68e-14 PD=5.2e-07 PS=5.2e-07 fw=1.2e-07 sa=1.4e-07 sb=1.4e-07 sca=3.69959 scb=0.00013007 scc=4.39142e-09 $X=420 $Y=800 $dt=0
M1 4 5 6 3 g45n1svt L=4.5e-08 W=1.2e-07 AD=1.68e-14 AS=1.68e-14 PD=5.2e-07 PS=5.2e-07 fw=1.2e-07 sa=1.4e-07 sb=1.4e-07 sca=3.69959 scb=0.00013007 scc=4.39142e-09 $X=1350 $Y=800 $dt=0
M2 1 7 4 3 g45n1svt L=4.5e-08 W=1.2e-07 AD=1.68e-14 AS=1.68e-14 PD=5.2e-07 PS=5.2e-07 fw=1.2e-07 sa=1.4e-07 sb=1.4e-07 sca=3.69959 scb=0.00013007 scc=4.39142e-09 $X=2280 $Y=800 $dt=0
M3 3 5 7 3 g45n1svt L=4.5e-08 W=1.2e-07 AD=1.68e-14 AS=1.68e-14 PD=5.2e-07 PS=5.2e-07 fw=1.2e-07 sa=1.4e-07 sb=1.4e-07 sca=3.69959 scb=0.00013007 scc=4.39142e-09 $X=3210 $Y=800 $dt=0
.ends XOR

* +++++++++++++++++++++++++++++++++++++++++++++++++++++++++ *
* Sub cell: M4_M3_CDNS_7656633918068                        *
* +++++++++++++++++++++++++++++++++++++++++++++++++++++++++ *
.subckt M4_M3_CDNS_7656633918068 1
** N=1 EP=1 FDC=0
.ends M4_M3_CDNS_7656633918068

* +++++++++++++++++++++++++++++++++++++++++++++++++++++++++ *
* Sub cell: M7_M6_CDNS_7656633918069                        *
* +++++++++++++++++++++++++++++++++++++++++++++++++++++++++ *
.subckt M7_M6_CDNS_7656633918069 1