* +++++++++++++++++++++++++++++++++++++++++++++++++++++++++ *
* CDL Netlist:                                              *
*                                                           *
* Cell Name  : WallaceProject                               *
* Netlisted  : Fri Dec 12 22:19:31 2025                     *
* PVS Version: 23.11-s036 Wed Jan 17 18:11:41 PST 2024      *
* +++++++++++++++++++++++++++++++++++++++++++++++++++++++++ *
*.LDD
*.DEVTMPLT 0 MN(g45n1svt) _nmos1v ndiff_conn(D) poly_conn(G) ndiff_conn(S) psubstrate(B)
*.DEVTMPLT 1 MP(g45p1svt) _pmos1v pdiff_conn(D) poly_conn(G) pdiff_conn(S) nwell_conn(B)

* +++++++++++++++++++++++++++++++++++++++++++++++++++++++++ *
* Sub cell: nmos1v_CDNS_765595966083                        *
* +++++++++++++++++++++++++++++++++++++++++++++++++++++++++ *
.subckt nmos1v_CDNS_765595966083 1 2 3
** N=3 EP=3 FDC=1
M0 3 2 1 1 g45n1svt L=4.5e-08 W=1.2e-07 AD=1.92e-14 AS=1.68e-14 PD=5.6e-07 PS=5.2e-07 fw=1.2e-07 sa=1.4e-07 sb=3.45e-07 sca=3.69959 scb=0.00013007 scc=4.39142e-09 $X=0 $Y=0 $dt=0
.ends nmos1v_CDNS_765595966083

* +++++++++++++++++++++++++++++++++++++++++++++++++++++++++ *
* Sub cell: nmos1v_CDNS_765595966089                        *
* +++++++++++++++++++++++++++++++++++++++++++++++++++++++++ *
.subckt nmos1v_CDNS_765595966089 1 2 3 4
** N=4 EP=4 FDC=1
M0 2 1 3 4 g45n1svt L=4.5e-08 W=1.2e-07 AD=1.92e-14 AS=7.2e-15 PD=5.6e-07 PS=3.6e-07 fw=1.2e-07 sa=4.5e-07 sb=3.45e-07 sca=3.69959 scb=0.00013007 scc=4.39142e-09 $X=0 $Y=0 $dt=0
.ends nmos1v_CDNS_765595966089

* +++++++++++++++++++++++++++++++++++++++++++++++++++++++++ *
* Sub cell: nmos1v_CDNS_7655959660810                       *
* +++++++++++++++++++++++++++++++++++++++++++++++++++++++++ *
.subckt nmos1v_CDNS_7655959660810 1 2 3
** N=3 EP=3 FDC=1
M0 3 2 1 1 g45n1svt L=4.5e-08 W=1.2e-07 AD=7.2e-15 AS=1.92e-14 PD=3.6e-07 PS=5.6e-07 fw=1.2e-07 sa=3.45e-07 sb=4.5e-07 sca=3.69959 scb=0.00013007 scc=4.39142e-09 $X=0 $Y=0 $dt=0
.ends nmos1v_CDNS_7655959660810

* +++++++++++++++++++++++++++++++++++++++++++++++++++++++++ *
* Sub cell: HAdder                                          *
* +++++++++++++++++++++++++++++++++++++++++++++++++++++++++ *
.subckt HAdder sum gnd carry a b vdd 7 8 10 11
*.DEVICECLIMB
** N=12 EP=10 FDC=8
X37 gnd 7 carry nmos1v_CDNS_765595966083 $T=1570 -6890 1 90 $X=1370 $Y=-7310
X44 a sum 12 gnd nmos1v_CDNS_765595966089 $T=1570 -4930 1 90 $X=1370 $Y=-5130
X45 gnd b 12 nmos1v_CDNS_7655959660810 $T=1570 -5140 1 90 $X=1370 $Y=-5500
M0 gnd 8 carry gnd g45n1svt L=4.5e-08 W=1.2e-07 AD=1.68e-14 AS=1.92e-14 PD=5.2e-07 PS=5.6e-07 fw=1.2e-07 sa=3.45e-07 sb=1.4e-07 sca=3.69959 scb=0.00013007 scc=4.39142e-09 $X=1570 $Y=-6480 $dt=0
M1 gnd 7 9 gnd g45n1svt L=4.5e-08 W=1.2e-07 AD=1.92e-14 AS=1.68e-14 PD=5.6e-07 PS=5.2e-07 fw=1.2e-07 sa=1.4e-07 sb=6.55e-07 sca=3.69959 scb=0.00013007 scc=4.39142e-09 $X=1570 $Y=-5550 $dt=0
M2 9 8 sum gnd g45n1svt L=4.5e-08 W=1.2e-07 AD=1.68e-14 AS=1.92e-14 PD=5.2e-07 PS=5.6e-07 fw=1.2e-07 sa=6.55e-07 sb=1.4e-07 sca=3.69959 scb=0.00013007 scc=4.39142e-09 $X=1570 $Y=-4520 $dt=0
M3 gnd a 8 gnd g45n1svt L=4.5e-08 W=1.2e-07 AD=1.68e-14 AS=1.68e-14 PD=5.2e-07 PS=5.2e-07 fw=1.2e-07 sa=1.4e-07 sb=1.4e-07 sca=3.69959 scb=0.00013007 scc=4.39142e-09 $X=1570 $Y=-3590 $dt=0
M4 gnd b 7 gnd g45n1svt L=4.5e-08 W=1.2e-07 AD=1.68e-14 AS=1.68e-14 PD=5.2e-07 PS=5.2e-07 fw=1.2e-07 sa=1.4e-07 sb=1.4e-07 sca=3.69959 scb=0.00013007 scc=4.39142e-09 $X=1580 $Y=-2660 $dt=0
.ends HAdder

* +++++++++++++++++++++++++++++++++++++++++++++++++++++++++ *
* Sub cell: WallaceMultiplier                               *
* +++++++++++++++++++++++++++++++++++++++++++++++++++++++++ *
.subckt WallaceMultiplier b<0> a<7> a<6> a<5> a<4> a<3> a<2> a<1> a<0> vdd
+ gnd p05 p04 p03 p02 p01 p00 b<1> p07 p06
+ p14 p13 p12 p11 p10 b<2> p17 p16 p15 p24
+ p23 p22 p21 p20 b<3> p27 p26 p25 p34 p33
+ p32 p31 p30 b<4> p37 p36 p35 p44 p43 p42
+ p41 p40 b<5> p47 p46 p45 p54 p53 p52 p51
+ p50 b<6> p57 p56 p55 p64 p63 p62 p61 p60
+ b<7> p67 p66 p65 p74 p73 p72 p71 p70 p77
+ p76 p75
** N=210 EP=82 FDC=384
M0 154 a<7> 90 gnd g45n1svt L=4.5e-08 W=1.2e-07 AD=7.2e-15 AS=1.68e-14 PD=3.6e-07 PS=5.2e-07 fw=1.2e-07 sa=1.4e-07 sb=2.45e-07 sca=7.11756 scb=0.00354063 scc=2.49777e-05 $X=4660 $Y=33350 $dt=0
M1 153 a<6> 89 gnd g45n1svt L=4.5e-08 W=1.2e-07 AD=7.2e-15 AS=1.68e-14 PD=3.6e-07 PS=5.2e-07 fw=1.2e-07 sa=1.4e-07 sb=2.45e-07 sca=7.11756 scb=0.00354063 scc=2.49777e-05 $X=4660 $Y=34150 $dt=0
M2 152 a<5> 88 gnd g45n1svt L=4.5e-08 W=1.2e-07 AD=7.2e-15 AS=1.68e-14 PD=3.6e-07 PS=5.2e-07 fw=1.2e-07 sa=1.4e-07 sb=2.45e-07 sca=7.11756 scb=0.00354063 scc=2.49777e-05 $X=4660 $Y=37890 $dt=0
M3 151 a<4> 87 gnd g45n1svt L=4.5e-08 W=1.2e-07 AD=7.2e-15 AS=1.68e-14 PD=3.6e-07 PS=5.2e-07 fw=1.2e-07 sa=1.4e-07 sb=2.45e-07 sca=7.11756 scb=0.00354063 scc=2.49777e-05 $X=4660 $Y=38690 $dt=0
M4 150 a<3> 86 gnd g45n1svt L=4.5e-08 W=1.2e-07 AD=7.2e-15 AS=1.68e-14 PD=3.6e-07 PS=5.2e-07 fw=1.2e-07 sa=1.4e-07 sb=2.45e-07 sca=7.11756 scb=0.00354063 scc=2.49777e-05 $X=4660 $Y=42430 $dt=0
M5 149 a<2> 85 gnd g45n1svt L=4.5e-08 W=1.2e-07 AD=7.2e-15 AS=1.68e-14 PD=3.6e-07 PS=5.2e-07 fw=1.2e-07 sa=1.4e-07 sb=2.45e-07 sca=7.11756 scb=0.00354063 scc=2.49777e-05 $X=4660 $Y=43230 $dt=0
M6 148 a<1> 84 gnd g45n1svt L=4.5e-08 W=1.2e-07 AD=7.2e-15 AS=1.68e-14 PD=3.6e-07 PS=5.2e-07 fw=1.2e-07 sa=1.4e-07 sb=2.45e-07 sca=7.11756 scb=0.00354063 scc=2.49777e-05 $X=4660 $Y=46970 $dt=0
M7 147 a<0> 83 gnd g45n1svt L=4.5e-08 W=1.2e-07 AD=7.2e-15 AS=1.68e-14 PD=3.6e-07 PS=5.2e-07 fw=1.2e-07 sa=1.4e-07 sb=2.45e-07 sca=7.11756 scb=0.00354063 scc=2.49777e-05 $X=4660 $Y=47770 $dt=0
M8 gnd b<0> 154 gnd g45n1svt L=4.5e-08 W=1.2e-07 AD=1.68e-14 AS=7.2e-15 PD=5.2e-07 PS=3.6e-07 fw=1.2e-07 sa=2.45e-07 sb=1.4e-07 sca=7.11756 scb=0.00354063 scc=2.49777e-05 $X=4870 $Y=33350 $dt=0
M9 gnd b<0> 153 gnd g45n1svt L=4.5e-08 W=1.2e-07 AD=1.68e-14 AS=7.2e-15 PD=5.2e-07 PS=3.6e-07 fw=1.2e-07 sa=2.45e-07 sb=1.4e-07 sca=7.11756 scb=0.00354063 scc=2.49777e-05 $X=4870 $Y=34150 $dt=0
M10 gnd b<0> 152 gnd g45n1svt L=4.5e-08 W=1.2e-07 AD=1.68e-14 AS=7.2e-15 PD=5.2e-07 PS=3.6e-07 fw=1.2e-07 sa=2.45e-07 sb=1.4e-07 sca=7.11756 scb=0.00354063 scc=2.49777e-05 $X=4870 $Y=37890 $dt=0
M11 gnd b<0> 151 gnd g45n1svt L=4.5e-08 W=1.2e-07 AD=1.68e-14 AS=7.2e-15 PD=5.2e-07 PS=3.6e-07 fw=1.2e-07 sa=2.45e-07 sb=1.4e-07 sca=7.11756 scb=0.00354063 scc=2.49777e-05 $X=4870 $Y=38690 $dt=0
M12 gnd b<0> 150 gnd g45n1svt L=4.5e-08 W=1.2e-07 AD=1.68e-14 AS=7.2e-15 PD=5.2e-07 PS=3.6e-07 fw=1.2e-07 sa=2.45e-07 sb=1.4e-07 sca=7.11756 scb=0.00354063 scc=2.49777e-05 $X=4870 $Y=42430 $dt=0
M13 gnd b<0> 149 gnd g45n1svt L=4.5e-08 W=1.2e-07 AD=1.68e-14 AS=7.2e-15 PD=5.2e-07 PS=3.6e-07 fw=1.2e-07 sa=2.45e-07 sb=1.4e-07 sca=7.11756 scb=0.00354063 scc=2.49777e-05 $X=4870 $Y=43230 $dt=0
M14 gnd b<0> 148 gnd g45n1svt L=4.5e-08 W=1.2e-07 AD=1.68e-14 AS=7.2e-15 PD=5.2e-07 PS=3.6e-07 fw=1.2e-07 sa=2.45e-07 sb=1.4e-07 sca=7.11756 scb=0.00354063 scc=2.49777e-05 $X=4870 $Y=46970 $dt=0
M15 gnd b<0> 147 gnd g45n1svt L=4.5e-08 W=1.2e-07 AD=1.68e-14 AS=7.2e-15 PD=5.2e-07 PS=3.6e-07 fw=1.2e-07 sa=2.45e-07 sb=1.4e-07 sca=7.11756 scb=0.00354063 scc=2.49777e-05 $X=4870 $Y=47770 $dt=0
M16 p07 90 gnd gnd g45n1svt L=4.5e-08 W=1.2e-07 AD=1.68e-14 AS=1.68e-14 PD=5.2e-07 PS=5.2e-07 fw=1.2e-07 sa=1.4e-07 sb=1.4e-07 sca=7.05259 scb=0.00341442 scc=2.28378e-05 $X=7290 $Y=33360 $dt=0
M17 p06 89 gnd gnd g45n1svt L=4.5e-08 W=1.2e-07 AD=1.68e-14 AS=1.68e-14 PD=5.2e-07 PS=5.2e-07 fw=1.2e-07 sa=1.4e-07 sb=1.4e-07 sca=7.05259 scb=0.00341442 scc=2.28378e-05 $X=7290 $Y=34140 $dt=0
M18 p05 88 gnd gnd g45n1svt L=4.5e-08 W=1.2e-07 AD=1.68e-14 AS=1.68e-14 PD=5.2e-07 PS=5.2e-07 fw=1.2e-07 sa=1.4e-07 sb=1.4e-07 sca=7.05259 scb=0.00341442 scc=2.28378e-05 $X=7290 $Y=37900 $dt=0
M19 p04 87 gnd gnd g45n1svt L=4.5e-08 W=1.2e-07 AD=1.68e-14 AS=1.68e-14 PD=5.2e-07 PS=5.2e-07 fw=1.2e-07 sa=1.4e-07 sb=1.4e-07 sca=7.05259 scb=0.00341442 scc=2.28378e-05 $X=7290 $Y=38680 $dt=0
M20 p03 86 gnd gnd g45n1svt L=4.5e-08 W=1.2e-07 AD=1.68e-14 AS=1.68e-14 PD=5.2e-07 PS=5.2e-07 fw=1.2e-07 sa=1.4e-07 sb=1.4e-07 sca=7.05259 scb=0.00341442 scc=2.28378e-05 $X=7290 $Y=42440 $dt=0
M21 p02 85 gnd gnd g45n1svt L=4.5e-08 W=1.2e-07 AD=1.68e-14 AS=1.68e-14 PD=5.2e-07 PS=5.2e-07 fw=1.2e-07 sa=1.4e-07 sb=1.4e-07 sca=7.05259 scb=0.00341442 scc=2.28378e-05 $X=7290 $Y=43220 $dt=0
M22 p01 84 gnd gnd g45n1svt L=4.5e-08 W=1.2e-07 AD=1.68e-14 AS=1.68e-14 PD=5.2e-07 PS=5.2e-07 fw=1.2e-07 sa=1.4e-07 sb=1.4e-07 sca=7.05259 scb=0.00341442 scc=2.28378e-05 $X=7290 $Y=46980 $dt=0
M23 p00 83 gnd gnd g45n1svt L=4.5e-08 W=1.2e-07 AD=1.68e-14 AS=1.68e-14 PD=5.2e-07 PS=5.2e-07 fw=1.2e-07 sa=1.4e-07 sb=1.4e-07 sca=7.05259 scb=0.00341442 scc=2.28378e-05 $X=7290 $Y=47760 $dt=0
M24 162 a<7> 98 gnd g45n1svt L=4.5e-08 W=1.2e-07 AD=7.2e-15 AS=1.68e-14 PD=3.6e-07 PS=5.2e-07 fw=1.2e-07 sa=1.4e-07 sb=2.45e-07 sca=7.11756 scb=0.00354063 scc=2.49777e-05 $X=9870 $Y=33340 $dt=0
M25 161 a<6> 97 gnd g45n1svt L=4.5e-08 W=1.2e-07 AD=7.2e-15 AS=1.68e-14 PD=3.6e-07 PS=5.2e-07 fw=1.2e-07 sa=1.4e-07 sb=2.45e-07 sca=7.11756 scb=0.00354063 scc=2.49777e-05 $X=9870 $Y=34140 $dt=0
M26 160 a<5> 96 gnd g45n1svt L=4.5e-08 W=1.2e-07 AD=7.2e-15 AS=1.68e-14 PD=3.6e-07 PS=5.2e-07 fw=1.2e-07 sa=1.4e-07 sb=2.45e-07 sca=7.11756 scb=0.00354063 scc=2.49777e-05 $X=9870 $Y=37890 $dt=0
M27 159 a<4> 95 gnd g45n1svt L=4.5e-08 W=1.2e-07 AD=7.2e-15 AS=1.68e-14 PD=3.6e-07 PS=5.2e-07 fw=1.2e-07 sa=1.4e-07 sb=2.45e-07 sca=7.11756 scb=0.00354063 scc=2.49777e-05 $X=9870 $Y=38690 $dt=0
M28 158 a<3> 94 gnd g45n1svt L=4.5e-08 W=1.2e-07 AD=7.2e-15 AS=1.68e-14 PD=3.6e-07 PS=5.2e-07 fw=1.2e-07 sa=1.4e-07 sb=2.45e-07 sca=7.11756 scb=0.00354063 scc=2.49777e-05 $X=9870 $Y=42430 $dt=0
M29 157 a<2> 93 gnd g45n1svt L=4.5e-08 W=1.2e-07 AD=7.2e-15 AS=1.68e-14 PD=3.6e-07 PS=5.2e-07 fw=1.2e-07 sa=1.4e-07 sb=2.45e-07 sca=7.11756 scb=0.00354063 scc=2.49777e-05 $X=9870 $Y=43230 $dt=0
M30 156 a<1> 92 gnd g45n1svt L=4.5e-08 W=1.2e-07 AD=7.2e-15 AS=1.68e-14 PD=3.6e-07 PS=5.2e-07 fw=1.2e-07 sa=1.4e-07 sb=2.45e-07 sca=7.11756 scb=0.00354063 scc=2.49777e-05 $X=9870 $Y=46970 $dt=0
M31 155 a<0> 91 gnd g45n1svt L=4.5e-08 W=1.2e-07 AD=7.2e-15 AS=1.68e-14 PD=3.6e-07 PS=5.2e-07 fw=1.2e-07 sa=1.4e-07 sb=2.45e-07 sca=7.11756 scb=0.00354063 scc=2.49777e-05 $X=9870 $Y=47770 $dt=0
M32 gnd b<1> 162 gnd g45n1svt L=4.5e-08 W=1.2e-07 AD=1.68e-14 AS=7.2e-15 PD=5.2e-07 PS=3.6e-07 fw=1.2e-07 sa=2.45e-07 sb=1.4e-07 sca=7.11756 scb=0.00354063 scc=2.49777e-05 $X=10080 $Y=33340 $dt=0
M33 gnd b<1> 161 gnd g45n1svt L=4.5e-08 W=1.2e-07 AD=1.68e-14 AS=7.2e-15 PD=5.2e-07 PS=3.6e-07 fw=1.2e-07 sa=2.45e-07 sb=1.4e-07 sca=7.11756 scb=0.00354063 scc=2.49777e-05 $X=10080 $Y=34140 $dt=0
M34 gnd b<1> 160 gnd g45n1svt L=4.5e-08 W=1.2e-07 AD=1.68e-14 AS=7.2e-15 PD=5.2e-07 PS=3.6e-07 fw=1.2e-07 sa=2.45e-07 sb=1.4e-07 sca=7.11756 scb=0.00354063 scc=2.49777e-05 $X=10080 $Y=37890 $dt=0
M35 gnd b<1> 159 gnd g45n1svt L=4.5e-08 W=1.2e-07 AD=1.68e-14 AS=7.2e-15 PD=5.2e-07 PS=3.6e-07 fw=1.2e-07 sa=2.45e-07 sb=1.4e-07 sca=7.11756 scb=0.00354063 scc=2.49777e-05 $X=10080 $Y=38690 $dt=0
M36 gnd b<1> 158 gnd g45n1svt L=4.5e-08 W=1.2e-07 AD=1.68e-14 AS=7.2e-15 PD=5.2e-07 PS=3.6e-07 fw=1.2e-07 sa=2.45e-07 sb=1.4e-07 sca=7.11756 scb=0.00354063 scc=2.49777e-05 $X=10080 $Y=42430 $dt=0
M37 gnd b<1> 157 gnd g45n1svt L=4.5e-08 W=1.2e-07 AD=1.68e-14 AS=7.2e-15 PD=5.2e-07 PS=3.6e-07 fw=1.2e-07 sa=2.45e-07 sb=1.4e-07 sca=7.11756 scb=0.00354063 scc=2.49777e-05 $X=10080 $Y=43230 $dt=0
M38 gnd b<1> 156 gnd g45n1svt L=4.5e-08 W=1.2e-07 AD=1.68e-14 AS=7.2e-15 PD=5.2e-07 PS=3.6e-07 fw=1.2e-07 sa=2.45e-07 sb=1.4e-07 sca=7.11756 scb=0.00354063 scc=2.49777e-05 $X=10080 $Y=46970 $dt=0
M39 gnd b<1> 155 gnd g45n1svt L=4.5e-08 W=1.2e-07 AD=1.68e-14 AS=7.2e-15 PD=5.2e-07 PS=3.6e-07 fw=1.2e-07 sa=2.45e-07 sb=1.4e-07 sca=7.11756 scb=0.00354063 scc=2.49777e-05 $X=10080 $Y=47770 $dt=0
M40 p17 98 gnd gnd g45n1svt L=4.5e-08 W=1.2e-07 AD=1.68e-14 AS=1.68e-14 PD=5.2e-07 PS=5.2e-07 fw=1.2e-07 sa=1.4e-07 sb=1.4e-07 sca=7.05259 scb=0.00341442 scc=2.28378e-05 $X=12500 $Y=33350 $dt=0
M41 p16 97 gnd gnd g45n1svt L=4.5e-08 W=1.2e-07 AD=1.68e-14 AS=1.68e-14 PD=5.2e-07 PS=5.2e-07 fw=1.2e-07 sa=1.4e-07 sb=1.4e-07 sca=7.05259 scb=0.00341442 scc=2.28378e-05 $X=12500 $Y=34130 $dt=0
M42 p15 96 gnd gnd g45n1svt L=4.5e-08 W=1.2e-07 AD=1.68e-14 AS=1.68e-14 PD=5.2e-07 PS=5.2e-07 fw=1.2e-07 sa=1.4e-07 sb=1.4e-07 sca=7.05259 scb=0.00341442 scc=2.28378e-05 $X=12500 $Y=37900 $dt=0
M43 p14 95 gnd gnd g45n1svt L=4.5e-08 W=1.2e-07 AD=1.68e-14 AS=1.68e-14 PD=5.2e-07 PS=5.2e-07 fw=1.2e-07 sa=1.4e-07 sb=1.4e-07 sca=7.05259 scb=0.00341442 scc=2.28378e-05 $X=12500 $Y=38680 $dt=0
M44 p13 94 gnd gnd g45n1svt L=4.5e-08 W=1.2e-07 AD=1.68e-14 AS=1.68e-14 PD=5.2e-07 PS=5.2e-07 fw=1.2e-07 sa=1.4e-07 sb=1.4e-07 sca=7.05259 scb=0.00341442 scc=2.28378e-05 $X=12500 $Y=42440 $dt=0
M45 p12 93 gnd gnd g45n1svt L=4.5e-08 W=1.2e-07 AD=1.68e-14 AS=1.68e-14 PD=5.2e-07 PS=5.2e-07 fw=1.2e-07 sa=1.4e-07 sb=1.4e-07 sca=7.05259 scb=0.00341442 scc=2.28378e-05 $X=12500 $Y=43220 $dt=0
M46 p11 92 gnd gnd g45n1svt L=4.5e-08 W=1.2e-07 AD=1.68e-14 AS=1.68e-14 PD=5.2e-07 PS=5.2e-07 fw=1.2e-07 sa=1.4e-07 sb=1.4e-07 sca=7.05259 scb=0.00341442 scc=2.28378e-05 $X=12500 $Y=46980 $dt=0
M47 p10 91 gnd gnd g45n1svt L=4.5e-08 W=1.2e-07 AD=1.68e-14 AS=1.68e-14 PD=5.2e-07 PS=5.2e-07 fw=1.2e-07 sa=1.4e-07 sb=1.4e-07 sca=7.05259 scb=0.00341442 scc=2.28378e-05 $X=12500 $Y=47760 $dt=0
M48 170 a<7> 106 gnd g45n1svt L=4.5e-08 W=1.2e-07 AD=7.2e-15 AS=1.68e-14 PD=3.6e-07 PS=5.2e-07 fw=1.2e-07 sa=1.4e-07 sb=2.45e-07 sca=7.11756 scb=0.00354063 scc=2.49777e-05 $X=14870 $Y=33340 $dt=0
M49 169 a<6> 105 gnd g45n1svt L=4.5e-08 W=1.2e-07 AD=7.2e-15 AS=1.68e-14 PD=3.6e-07 PS=5.2e-07 fw=1.2e-07 sa=1.4e-07 sb=2.45e-07 sca=7.11756 scb=0.00354063 scc=2.49777e-05 $X=14870 $Y=34140 $dt=0
M50 168 a<5> 104 gnd g45n1svt L=4.5e-08 W=1.2e-07 AD=7.2e-15 AS=1.68e-14 PD=3.6e-07 PS=5.2e-07 fw=1.2e-07 sa=1.4e-07 sb=2.45e-07 sca=7.11756 scb=0.00354063 scc=2.49777e-05 $X=14870 $Y=37890 $dt=0
M51 167 a<4> 103 gnd g45n1svt L=4.5e-08 W=1.2e-07 AD=7.2e-15 AS=1.68e-14 PD=3.6e-07 PS=5.2e-07 fw=1.2e-07 sa=1.4e-07 sb=2.45e-07 sca=7.11756 scb=0.00354063 scc=2.49777e-05 $X=14870 $Y=38690 $dt=0
M52 166 a<3> 102 gnd g45n1svt L=4.5e-08 W=1.2e-07 AD=7.2e-15 AS=1.68e-14 PD=3.6e-07 PS=5.2e-07 fw=1.2e-07 sa=1.4e-07 sb=2.45e-07 sca=7.11756 scb=0.00354063 scc=2.49777e-05 $X=14870 $Y=42430 $dt=0
M53 165 a<2> 101 gnd g45n1svt L=4.5e-08 W=1.2e-07 AD=7.2e-15 AS=1.68e-14 PD=3.6e-07 PS=5.2e-07 fw=1.2e-07 sa=1.4e-07 sb=2.45e-07 sca=7.11756 scb=0.00354063 scc=2.49777e-05 $X=14870 $Y=43230 $dt=0
M54 164 a<1> 100 gnd g45n1svt L=4.5e-08 W=1.2e-07 AD=7.2e-15 AS=1.68e-14 PD=3.6e-07 PS=5.2e-07 fw=1.2e-07 sa=1.4e-07 sb=2.45e-07 sca=7.11756 scb=0.00354063 scc=2.49777e-05 $X=14870 $Y=46970 $dt=0
M55 163 a<0> 99 gnd g45n1svt L=4.5e-08 W=1.2e-07 AD=7.2e-15 AS=1.68e-14 PD=3.6e-07 PS=5.2e-07 fw=1.2e-07 sa=1.4e-07 sb=2.45e-07 sca=7.11756 scb=0.00354063 scc=2.49777e-05 $X=14870 $Y=47770 $dt=0
M56 gnd b<2> 170 gnd g45n1svt L=4.5e-08 W=1.2e-07 AD=1.68e-14 AS=7.2e-15 PD=5.2e-07 PS=3.6e-07 fw=1.2e-07 sa=2.45e-07 sb=1.4e-07 sca=7.11756 scb=0.00354063 scc=2.49777e-05 $X=15080 $Y=33340 $dt=0
M57 gnd b<2> 169 gnd g45n1svt L=4.5e-08 W=1.2e-07 AD=1.68e-14 AS=7.2e-15 PD=5.2e-07 PS=3.6e-07 fw=1.2e-07 sa=2.45e-07 sb=1.4e-07 sca=7.11756 scb=0.00354063 scc=2.49777e-05 $X=15080 $Y=34140 $dt=0
M58 gnd b<2> 168 gnd g45n1svt L=4.5e-08 W=1.2e-07 AD=1.68e-14 AS=7.2e-15 PD=5.2e-07 PS=3.6e-07 fw=1.2e-07 sa=2.45e-07 sb=1.4e-07 sca=7.11756 scb=0.00354063 scc=2.49777e-05 $X=15080 $Y=37890 $dt=0
M59 gnd b<2> 167 gnd g45n1svt L=4.5e-08 W=1.2e-07 AD=1.68e-14 AS=7.2e-15 PD=5.2e-07 PS=3.6e-07 fw=1.2e-07 sa=2.45e-07 sb=1.4e-07 sca=7.11756 scb=0.00354063 scc=2.49777e-05 $X=15080 $Y=38690 $dt=0
M60 gnd b<2> 166 gnd g45n1svt L=4.5e-08 W=1.2e-07 AD=1.68e-14 AS=7.2e-15 PD=5.2e-07 PS=3.6e-07 fw=1.2e-07 sa=2.45e-07 sb=1.4e-07 sca=7.11756 scb=0.00354063 scc=2.49777e-05 $X=15080 $Y=42430 $dt=0
M61 gnd b<2> 165 gnd g45n1svt L=4.5e-08 W=1.2e-07 AD=1.68e-14 AS=7.2e-15 PD=5.2e-07 PS=3.6e-07 fw=1.2e-07 sa=2.45e-07 sb=1.4e-07 sca=7.11756 scb=0.00354063 scc=2.49777e-05 $X=15080 $Y=43230 $dt=0
M62 gnd b<2> 164 gnd g45n1svt L=4.5e-08 W=1.2e-07 AD=1.68e-14 AS=7.2e-15 PD=5.2e-07 PS=3.6e-07 fw=1.2e-07 sa=2.45e-07 sb=1.4e-07 sca=7.11756 scb=0.00354063 scc=2.49777e-05 $X=15080 $Y=46970 $dt=0
M63 gnd b<2> 163 gnd g45n1svt L=4.5e-08 W=1.2e-07 AD=1.68e-14 AS=7.2e-15 PD=5.2e-07 PS=3.6e-07 fw=1.2e-07 sa=2.45e-07 sb=1.4e-07 sca=7.11756 scb=0.00354063 scc=2.49777e-05 $X=15080 $Y=47770 $dt=0
M64 p27 106 gnd gnd g45n1svt L=4.5e-08 W=1.2e-07 AD=1.68e-14 AS=1.68e-14 PD=5.2e-07 PS=5.2e-07 fw=1.2e-07 sa=1.4e-07 sb=1.4e-07 sca=7.05259 scb=0.00341442 scc=2.28378e-05 $X=17500 $Y=33350 $dt=0
M65 p26 105 gnd gnd g45n1svt L=4.5e-08 W=1.2e-07 AD=1.68e-14 AS=1.68e-14 PD=5.2e-07 PS=5.2e-07 fw=1.2e-07 sa=1.4e-07 sb=1.4e-07 sca=7.05259 scb=0.00341442 scc=2.28378e-05 $X=17500 $Y=34130 $dt=0
M66 p25 104 gnd gnd g45n1svt L=4.5e-08 W=1.2e-07 AD=1.68e-14 AS=1.68e-14 PD=5.2e-07 PS=5.2e-07 fw=1.2e-07 sa=1.4e-07 sb=1.4e-07 sca=7.05259 scb=0.00341442 scc=2.28378e-05 $X=17500 $Y=37900 $dt=0
M67 p24 103 gnd gnd g45n1svt L=4.5e-08 W=1.2e-07 AD=1.68e-14 AS=1.68e-14 PD=5.2e-07 PS=5.2e-07 fw=1.2e-07 sa=1.4e-07 sb=1.4e-07 sca=7.05259 scb=0.00341442 scc=2.28378e-05 $X=17500 $Y=38680 $dt=0
M68 p23 102 gnd gnd g45n1svt L=4.5e-08 W=1.2e-07 AD=1.68e-14 AS=1.68e-14 PD=5.2e-07 PS=5.2e-07 fw=1.2e-07 sa=1.4e-07 sb=1.4e-07 sca=7.05259 scb=0.00341442 scc=2.28378e-05 $X=17500 $Y=42440 $dt=0
M69 p22 101 gnd gnd g45n1svt L=4.5e-08 W=1.2e-07 AD=1.68e-14 AS=1.68e-14 PD=5.2e-07 PS=5.2e-07 fw=1.2e-07 sa=1.4e-07 sb=1.4e-07 sca=7.05259 scb=0.00341442 scc=2.28378e-05 $X=17500 $Y=43220 $dt=0
M70 p21 100 gnd gnd g45n1svt L=4.5e-08 W=1.2e-07 AD=1.68e-14 AS=1.68e-14 PD=5.2e-07 PS=5.2e-07 fw=1.2e-07 sa=1.4e-07 sb=1.4e-07 sca=7.05259 scb=0.00341442 scc=2.28378e-05 $X=17500 $Y=46980 $dt=0
M71 p20 99 gnd gnd g45n1svt L=4.5e-08 W=1.2e-07 AD=1.68e-14 AS=1.68e-14 PD=5.2e-07 PS=5.2e-07 fw=1.2e-07 sa=1.4e-07 sb=1.4e-07 sca=7.05259 scb=0.00341442 scc=2.28378e-05 $X=17500 $Y=47760 $dt=0
M72 178 a<7> 114 gnd g45n1svt L=4.5e-08 W=1.2e-07 AD=7.2e-15 AS=1.68e-14 PD=3.6e-07 PS=5.2e-07 fw=1.2e-07 sa=1.4e-07 sb=2.45e-07 sca=7.11756 scb=0.00354063 scc=2.49777e-05 $X=20000 $Y=33340 $dt=0
M73 177 a<6> 113 gnd g45n1svt L=4.5e-08 W=1.2e-07 AD=7.2e-15 AS=1.68e-14 PD=3.6e-07 PS=5.2e-07 fw=1.2e-07 sa=1.4e-07 sb=2.45e-07 sca=7.11756 scb=0.00354063 scc=2.49777e-05 $X=20000 $Y=34140 $dt=0
M74 176 a<5> 112 gnd g45n1svt L=4.5e-08 W=1.2e-07 AD=7.2e-15 AS=1.68e-14 PD=3.6e-07 PS=5.2e-07 fw=1.2e-07 sa=1.4e-07 sb=2.45e-07 sca=7.11756 scb=0.00354063 scc=2.49777e-05 $X=20000 $Y=37890 $dt=0
M75 175 a<4> 111 gnd g45n1svt L=4.5e-08 W=1.2e-07 AD=7.2e-15 AS=1.68e-14 PD=3.6e-07 PS=5.2e-07 fw=1.2e-07 sa=1.4e-07 sb=2.45e-07 sca=7.11756 scb=0.00354063 scc=2.49777e-05 $X=20000 $Y=38690 $dt=0
M76 174 a<3> 110 gnd g45n1svt L=4.5e-08 W=1.2e-07 AD=7.2e-15 AS=1.68e-14 PD=3.6e-07 PS=5.2e-07 fw=1.2e-07 sa=1.4e-07 sb=2.45e-07 sca=7.11756 scb=0.00354063 scc=2.49777e-05 $X=20000 $Y=42430 $dt=0
M77 173 a<2> 109 gnd g45n1svt L=4.5e-08 W=1.2e-07 AD=7.2e-15 AS=1.68e-14 PD=3.6e-07 PS=5.2e-07 fw=1.2e-07 sa=1.4e-07 sb=2.45e-07 sca=7.11756 scb=0.00354063 scc=2.49777e-05 $X=20000 $Y=43230 $dt=0
M78 172 a<1> 108 gnd g45n1svt L=4.5e-08 W=1.2e-07 AD=7.2e-15 AS=1.68e-14 PD=3.6e-07 PS=5.2e-07 fw=1.2e-07 sa=1.4e-07 sb=2.45e-07 sca=7.11756 scb=0.00354063 scc=2.49777e-05 $X=20000 $Y=46970 $dt=0
M79 171 a<0> 107 gnd g45n1svt L=4.5e-08 W=1.2e-07 AD=7.2e-15 AS=1.68e-14 PD=3.6e-07 PS=5.2e-07 fw=1.2e-07 sa=1.4e-07 sb=2.45e-07 sca=7.11756 scb=0.00354063 scc=2.49777e-05 $X=20000 $Y=47770 $dt=0
M80 gnd b<3> 178 gnd g45n1svt L=4.5e-08 W=1.2e-07 AD=1.68e-14 AS=7.2e-15 PD=5.2e-07 PS=3.6e-07 fw=1.2e-07 sa=2.45e-07 sb=1.4e-07 sca=7.11756 scb=0.00354063 scc=2.49777e-05 $X=20210 $Y=33340 $dt=0
M81 gnd b<3> 177 gnd g45n1svt L=4.5e-08 W=1.2e-07 AD=1.68e-14 AS=7.2e-15 PD=5.2e-07 PS=3.6e-07 fw=1.2e-07 sa=2.45e-07 sb=1.4e-07 sca=7.11756 scb=0.00354063 scc=2.49777e-05 $X=20210 $Y=34140 $dt=0
M82 gnd b<3> 176 gnd g45n1svt L=4.5e-08 W=1.2e-07 AD=1.68e-14 AS=7.2e-15 PD=5.2e-07 PS=3.6e-07 fw=1.2e-07 sa=2.45e-07 sb=1.4e-07 sca=7.11756 scb=0.00354063 scc=2.49777e-05 $X=20210 $Y=37890 $dt=0
M83 gnd b<3> 175 gnd g45n1svt L=4.5e-08 W=1.2e-07 AD=1.68e-14 AS=7.2e-15 PD=5.2e-07 PS=3.6e-07 fw=1.2e-07 sa=2.45e-07 sb=1.4e-07 sca=7.11756 scb=0.00354063 scc=2.49777e-05 $X=20210 $Y=38690 $dt=0
M84 gnd b<3> 174 gnd g45n1svt L=4.5e-08 W=1.2e-07 AD=1.68e-14 AS=7.2e-15 PD=5.2e-07 PS=3.6e-07 fw=1.2e-07 sa=2.45e-07 sb=1.4e-07 sca=7.11756 scb=0.00354063 scc=2.49777e-05 $X=20210 $Y=42430 $dt=0
M85 gnd b<3> 173 gnd g45n1svt L=4.5e-08 W=1.2e-07 AD=1.68e-14 AS=7.2e-15 PD=5.2e-07 PS=3.6e-07 fw=1.2e-07 sa=2.45e-07 sb=1.4e-07 sca=7.11756 scb=0.00354063 scc=2.49777e-05 $X=20210 $Y=43230 $dt=0
M86 gnd b<3> 172 gnd g45n1svt L=4.5e-08 W=1.2e-07 AD=1.68e-14 AS=7.2e-15 PD=5.2e-07 PS=3.6e-07 fw=1.2e-07 sa=2.45e-07 sb=1.4e-07 sca=7.11756 scb=0.00354063 scc=2.49777e-05 $X=20210 $Y=46970 $dt=0
M87 gnd b<3> 171 gnd g45n1svt L=4.5e-08 W=1.2e-07 AD=1.68e-14 AS=7.2e-15 PD=5.2e-07 PS=3.6e-07 fw=1.2e-07 sa=2.45e-07 sb=1.4e-07 sca=7.11756 scb=0.00354063 scc=2.49777e-05 $X=20210 $Y=47770 $dt=0
M88 p37 114 gnd gnd g45n1svt L=4.5e-08 W=1.2e-07 AD=1.68e-14 AS=1.68e-14 PD=5.2e-07 PS=5.2e-07 fw=1.2e-07 sa=1.4e-07 sb=1.4e-07 sca=7.05259 scb=0.00341442 scc=2.28378e-05 $X=22630 $Y=33350 $dt=0
M89 p36 113 gnd gnd g45n1svt L=4.5e-08 W=1.2e-07 AD=1.68e-14 AS=1.68e-14 PD=5.2e-07 PS=5.2e-07 fw=1.2e-07 sa=1.4e-07 sb=1.4e-07 sca=7.05259 scb=0.00341442 scc=2.28378e-05 $X=22630 $Y=34130 $dt=0
M90 p35 112 gnd gnd g45n1svt L=4.5e-08 W=1.2e-07 AD=1.68e-14 AS=1.68e-14 PD=5.2e-07 PS=5.2e-07 fw=1.2e-07 sa=1.4e-07 sb=1.4e-07 sca=7.05259 scb=0.00341442 scc=2.28378e-05 $X=22630 $Y=37900 $dt=0
M91 p34 111 gnd gnd g45n1svt L=4.5e-08 W=1.2e-07 AD=1.68e-14 AS=1.68e-14 PD=5.2e-07 PS=5.2e-07 fw=1.2e-07 sa=1.4e-07 sb=1.4e-07 sca=7.05259 scb=0.00341442 scc=2.28378e-05 $X=22630 $Y=38680 $dt=0
M92 p33 110 gnd gnd g45n1svt L=4.5e-08 W=1.2e-07 AD=1.68e-14 AS=1.68e-14 PD=5.2e-07 PS=5.2e-07 fw=1.2e-07 sa=1.4e-07 sb=1.4e-07 sca=7.05259 scb=0.00341442 scc=2.28378e-05 $X=22630 $Y=42440 $dt=0
M93 p32 109 gnd gnd g45n1svt L=4.5e-08 W=1.2e-07 AD=1.68e-14 AS=1.68e-14 PD=5.2e-07 PS=5.2e-07 fw=1.2e-07 sa=1.4e-07 sb=1.4e-07 sca=7.05259 scb=0.00341442 scc=2.28378e-05 $X=22630 $Y=43220 $dt=0
M94 p31 108 gnd gnd g45n1svt L=4.5e-08 W=1.2e-07 AD=1.68e-14 AS=1.68e-14 PD=5.2e-07 PS=5.2e-07 fw=1.2e-07 sa=1.4e-07 sb=1.4e-07 sca=7.05259 scb=0.00341442 scc=2.28378e-05 $X=22630 $Y=46980 $dt=0
M95 p30 107 gnd gnd g45n1svt L=4.5e-08 W=1.2e-07 AD=1.68e-14 AS=1.68e-14 PD=5.2e-07 PS=5.2e-07 fw=1.2e-07 sa=1.4e-07 sb=1.4e-07 sca=7.05259 scb=0.00341442 scc=2.28378e-05 $X=22630 $Y=47760 $dt=0
M96 186 a<7> 122 gnd g45n1svt L=4.5e-08 W=1.2e-07 AD=7.2e-15 AS=1.68e-14 PD=3.6e-07 PS=5.2e-07 fw=1.2e-07 sa=1.4e-07 sb=2.45e-07 sca=7.11756 scb=0.00354063 scc=2.49777e-05 $X=25070 $Y=33340 $dt=0
M97 185 a<6> 121 gnd g45n1svt L=4.5e-08 W=1.2e-07 AD=7.2e-15 AS=1.68e-14 PD=3.6e-07 PS=5.2e-07 fw=1.2e-07 sa=1.4e-07 sb=2.45e-07 sca=7.11756 scb=0.00354063 scc=2.49777e-05 $X=25070 $Y=34140 $dt=0
M98 184 a<5> 120 gnd g45n1svt L=4.5e-08 W=1.2e-07 AD=7.2e-15 AS=1.68e-14 PD=3.6e-07 PS=5.2e-07 fw=1.2e-07 sa=1.4e-07 sb=2.45e-07 sca=7.11756 scb=0.00354063 scc=2.49777e-05 $X=25070 $Y=37890 $dt=0
M99 183 a<4> 119 gnd g45n1svt L=4.5e-08 W=1.2e-07 AD=7.2e-15 AS=1.68e-14 PD=3.6e-07 PS=5.2e-07 fw=1.2e-07 sa=1.4e-07 sb=2.45e-07 sca=7.11756 scb=0.00354063 scc=2.49777e-05 $X=25070 $Y=38690 $dt=0
M100 182 a<3> 118 gnd g45n1svt L=4.5e-08 W=1.2e-07 AD=7.2e-15 AS=1.68e-14 PD=3.6e-07 PS=5.2e-07 fw=1.2e-07 sa=1.4e-07 sb=2.45e-07 sca=7.11756 scb=0.00354063 scc=2.49777e-05 $X=25070 $Y=42430 $dt=0
M101 181 a<2> 117 gnd g45n1svt L=4.5e-08 W=1.2e-07 AD=7.2e-15 AS=1.68e-14 PD=3.6e-07 PS=5.2e-07 fw=1.2e-07 sa=1.4e-07 sb=2.45e-07 sca=7.11756 scb=0.00354063 scc=2.49777e-05 $X=25070 $Y=43230 $dt=0
M102 180 a<1> 116 gnd g45n1svt L=4.5e-08 W=1.2e-07 AD=7.2e-15 AS=1.68e-14 PD=3.6e-07 PS=5.2e-07 fw=1.2e-07 sa=1.4e-07 sb=2.45e-07 sca=7.11756 scb=0.00354063 scc=2.49777e-05 $X=25070 $Y=46970 $dt=0
M103 179 a<0> 115 gnd g45n1svt L=4.5e-08 W=1.2e-07 AD=7.2e-15 AS=1.68e-14 PD=3.6e-07 PS=5.2e-07 fw=1.2e-07 sa=1.4e-07 sb=2.45e-07 sca=7.11756 scb=0.00354063 scc=2.49777e-05 $X=25070 $Y=47770 $dt=0
M104 gnd b<4> 186 gnd g45n1svt L=4.5e-08 W=1.2e-07 AD=1.68e-14 AS=7.2e-15 PD=5.2e-07 PS=3.6e-07 fw=1.2e-07 sa=2.45e-07 sb=1.4e-07 sca=7.11756 scb=0.00354063 scc=2.49777e-05 $X=25280 $Y=33340 $dt=0
M105 gnd b<4> 185 gnd g45n1svt L=4.5e-08 W=1.2e-07 AD=1.68e-14 AS=7.2e-15 PD=5.2e-07 PS=3.6e-07 fw=1.2e-07 sa=2.45e-07 sb=1.4e-07 sca=7.11756 scb=0.00354063 scc=2.49777e-05 $X=25280 $Y=34140 $dt=0
M106 gnd b<4> 184 gnd g45n1svt L=4.5e-08 W=1.2e-07 AD=1.68e-14 AS=7.2e-15 PD=5.2e-07 PS=3.6e-07 fw=1.2e-07 sa=2.45e-07 sb=1.4e-07 sca=7.11756 scb=0.00354063 scc=2.49777e-05 $X=25280 $Y=37890 $dt=0
M107 gnd b<4> 183 gnd g45n1svt L=4.5e-08 W=1.2e-07 AD=1.68e-14 AS=7.2e-15 PD=5.2e-07 PS=3.6e-07 fw=1.2e-07 sa=2.45e-07 sb=1.4e-07 sca=7.11756 scb=0.00354063 scc=2.49777e-05 $X=25280 $Y=38690 $dt=0
M108 gnd b<4> 182 gnd g45n1svt L=4.5e-08 W=1.2e-07 AD=1.68e-14 AS=7.2e-15 PD=5.2e-07 PS=3.6e-07 fw=1.2e-07 sa=2.45e-07 sb=1.4e-07 sca=7.11756 scb=0.00354063 scc=2.49777e-05 $X=25280 $Y=42430 $dt=0
M109 gnd b<4> 181 gnd g45n1svt L=4.5e-08 W=1.2e-07 AD=1.68e-14 AS=7.2e-15 PD=5.2e-07 PS=3.6e-07 fw=1.2e-07 sa=2.45e-07 sb=1.4e-07 sca=7.11756 scb=0.00354063 scc=2.49777e-05 $X=25280 $Y=43230 $dt=0
M110 gnd b<4> 180 gnd g45n1svt L=4.5e-08 W=1.2e-07 AD=1.68e-14 AS=7.2e-15 PD=5.2e-07 PS=3.6e-07 fw=1.2e-07 sa=2.45e-07 sb=1.4e-07 sca=7.11756 scb=0.00354063 scc=2.49777e-05 $X=25280 $Y=46970 $dt=0
M111 gnd b<4> 179 gnd g45n1svt L=4.5e-08 W=1.2e-07 AD=1.68e-14 AS=7.2e-15 PD=5.2e-07 PS=3.6e-07 fw=1.2e-07 sa=2.45e-07 sb=1.4e-07 sca=7.11756 scb=0.00354063 scc=2.49777e-05 $X=25280 $Y=47770 $dt=0
M112 p47 122 gnd gnd g45n1svt L=4.5e-08 W=1.2e-07 AD=1.68e-14 AS=1.68e-14 PD=5.2e-07 PS=5.2e-07 fw=1.2e-07 sa=1.4e-07 sb=1.4e-07 sca=7.05259 scb=0.00341442 scc=2.28378e-05 $X=27700 $Y=33350 $dt=0
M113 p46 121 gnd gnd g45n1svt L=4.5e-08 W=1.2e-07 AD=1.68e-14 AS=1.68e-14 PD=5.2e-07 PS=5.2e-07 fw=1.2e-07 sa=1.4e-07 sb=1.4e-07 sca=7.05259 scb=0.00341442 scc=2.28378e-05 $X=27700 $Y=34130 $dt=0
M114 p45 120 gnd gnd g45n1svt L=4.5e-08 W=1.2e-07 AD=1.68e-14 AS=1.68e-14 PD=5.2e-07 PS=5.2e-07 fw=1.2e-07 sa=1.4e-07 sb=1.4e-07 sca=7.05259 scb=0.00341442 scc=2.28378e-05 $X=27700 $Y=37900 $dt=0
M115 p44 119 gnd gnd g45n1svt L=4.5e-08 W=1.2e-07 AD=1.68e-14 AS=1.68e-14 PD=5.2e-07 PS=5.2e-07 fw=1.2e-07 sa=1.4e-07 sb=1.4e-07 sca=7.05259 scb=0.00341442 scc=2.28378e-05 $X=27700 $Y=38680 $dt=0
M116 p43 118 gnd gnd g45n1svt L=4.5e-08 W=1.2e-07 AD=1.68e-14 AS=1.68e-14 PD=5.2e-07 PS=5.2e-07 fw=1.2e-07 sa=1.4e-07 sb=1.4e-07 sca=7.05259 scb=0.00341442 scc=2.28378e-05 $X=27700 $Y=42440 $dt=0
M117 p42 117 gnd gnd g45n1svt L=4.5e-08 W=1.2e-07 AD=1.68e-14 AS=1.68e-14 PD=5.2e-07 PS=5.2e-07 fw=1.2e-07 sa=1.4e-07 sb=1.4e-07 sca=7.05259 scb=0.00341442 scc=2.28378e-05 $X=27700 $Y=43220 $dt=0
M118 p41 116 gnd gnd g45n1svt L=4.5e-08 W=1.2e-07 AD=1.68e-14 AS=1.68e-14 PD=5.2e-07 PS=5.2e-07 fw=1.2e-07 sa=1.4e-07 sb=1.4e-07 sca=7.05259 scb=0.00341442 scc=2.28378e-05 $X=27700 $Y=46980 $dt=0
M119 p40 115 gnd gnd g45n1svt L=4.5e-08 W=1.2e-07 AD=1.68e-14 AS=1.68e-14 PD=5.2e-07 PS=5.2e-07 fw=1.2e-07 sa=1.4e-07 sb=1.4e-07 sca=7.05259 scb=0.00341442 scc=2.28378e-05 $X=27700 $Y=47760 $dt=0
M120 194 a<7> 130 gnd g45n1svt L=4.5e-08 W=1.2e-07 AD=7.2e-15 AS=1.68e-14 PD=3.6e-07 PS=5.2e-07 fw=1.2e-07 sa=1.4e-07 sb=2.45e-07 sca=7.11756 scb=0.00354063 scc=2.49777e-05 $X=29940 $Y=33340 $dt=0
M121 193 a<6> 129 gnd g45n1svt L=4.5e-08 W=1.2e-07 AD=7.2e-15 AS=1.68e-14 PD=3.6e-07 PS=5.2e-07 fw=1.2e-07 sa=1.4e-07 sb=2.45e-07 sca=7.11756 scb=0.00354063 scc=2.49777e-05 $X=29940 $Y=34140 $dt=0
M122 192 a<5> 128 gnd g45n1svt L=4.5e-08 W=1.2e-07 AD=7.2e-15 AS=1.68e-14 PD=3.6e-07 PS=5.2e-07 fw=1.2e-07 sa=1.4e-07 sb=2.45e-07 sca=7.11756 scb=0.00354063 scc=2.49777e-05 $X=29940 $Y=37890 $dt=0
M123 191 a<4> 127 gnd g45n1svt L=4.5e-08 W=1.2e-07 AD=7.2e-15 AS=1.68e-14 PD=3.6e-07 PS=5.2e-07 fw=1.2e-07 sa=1.4e-07 sb=2.45e-07 sca=7.11756 scb=0.00354063 scc=2.49777e-05 $X=29940 $Y=38690 $dt=0
M124 190 a<3> 126 gnd g45n1svt L=4.5e-08 W=1.2e-07 AD=7.2e-15 AS=1.68e-14 PD=3.6e-07 PS=5.2e-07 fw=1.2e-07 sa=1.4e-07 sb=2.45e-07 sca=7.11756 scb=0.00354063 scc=2.49777e-05 $X=29940 $Y=42430 $dt=0
M125 189 a<2> 125 gnd g45n1svt L=4.5e-08 W=1.2e-07 AD=7.2e-15 AS=1.68e-14 PD=3.6e-07 PS=5.2e-07 fw=1.2e-07 sa=1.4e-07 sb=2.45e-07 sca=7.11756 scb=0.00354063 scc=2.49777e-05 $X=29940 $Y=43230 $dt=0
M126 188 a<1> 124 gnd g45n1svt L=4.5e-08 W=1.2e-07 AD=7.2e-15 AS=1.68e-14 PD=3.6e-07 PS=5.2e-07 fw=1.2e-07 sa=1.4e-07 sb=2.45e-07 sca=7.11756 scb=0.00354063 scc=2.49777e-05 $X=29940 $Y=46970 $dt=0
M127 187 a<0> 123 gnd g45n1svt L=4.5e-08 W=1.2e-07 AD=7.2e-15 AS=1.68e-14 PD=3.6e-07 PS=5.2e-07 fw=1.2e-07 sa=1.4e-07 sb=2.45e-07 sca=7.11756 scb=0.00354063 scc=2.49777e-05 $X=29940 $Y=47770 $dt=0
M128 gnd b<5> 194 gnd g45n1svt L=4.5e-08 W=1.2e-07 AD=1.68e-14 AS=7.2e-15 PD=5.2e-07 PS=3.6e-07 fw=1.2e-07 sa=2.45e-07 sb=1.4e-07 sca=7.11756 scb=0.00354063 scc=2.49777e-05 $X=30150 $Y=33340 $dt=0
M129 gnd b<5> 193 gnd g45n1svt L=4.5e-08 W=1.2e-07 AD=1.68e-14 AS=7.2e-15 PD=5.2e-07 PS=3.6e-07 fw=1.2e-07 sa=2.45e-07 sb=1.4e-07 sca=7.11756 scb=0.00354063 scc=2.49777e-05 $X=30150 $Y=34140 $dt=0
M130 gnd b<5> 192 gnd g45n1svt L=4.5e-08 W=1.2e-07 AD=1.68e-14 AS=7.2e-15 PD=5.2e-07 PS=3.6e-07 fw=1.2e-07 sa=2.45e-07 sb=1.4e-07 sca=7.11756 scb=0.00354063 scc=2.49777e-05 $X=30150 $Y=37890 $dt=0
M131 gnd b<5> 191 gnd g45n1svt L=4.5e-08 W=1.2e-07 AD=1.68e-14 AS=7.2e-15 PD=5.2e-07 PS=3.6e-07 fw=1.2e-07 sa=2.45e-07 sb=1.4e-07 sca=7.11756 scb=0.00354063 scc=2.49777e-05 $X=30150 $Y=38690 $dt=0